@<TRIPOS>MOLECULE
molecule
   66    70     1     0     0
SMALL
bcc


@<TRIPOS>ATOM
      1 CHA          0.0000     0.0000     0.0000 ce         1 DE9       0.006800
      2 CHB          4.6170    -0.2390    -1.4690 ce         1 DE9      -0.306600
      3 CHC          3.2290     0.8730    -6.0260 cf         1 DE9      -0.395600
      4 CHD         -1.3880     1.1290    -4.5580 cf         1 DE9      -0.126200
      5 NA           2.2100    -0.0130    -1.0600 nd         1 DE9      -0.382000
      6 C1A          1.3970     0.0000     0.0000 cd         1 DE9      -0.088000
      7 C2A          2.2240     0.0000     1.2150 cd         1 DE9      -0.015200
      8 C3A          3.5100    -0.0710     0.8070 cc         1 DE9      -0.153200
      9 C4A          3.4790    -0.1110    -0.6620 cc         1 DE9       0.090600
     10 CMA          4.7340    -0.1040     1.6840 c3         1 DE9      -0.013900
     11 CAA          1.7330     0.0670     2.6380 c3         1 DE9      -0.015200
     12 CBA          1.5140     1.5290     3.0340 c3         1 DE9      -0.173400
     13 CGA          1.0240     1.5960     4.4570 c          1 DE9       0.894600
     14 O1A          0.8660     0.5790     5.0910 o          1 DE9      -0.852300
     15 O2A          0.7620     2.7850     5.0220 o          1 DE9      -0.852300
     16 NB           3.5090     0.2970    -3.6250 na         1 DE9      -0.556800
     17 C1B          4.5800    -0.0790    -2.8460 cd         1 DE9      -0.013000
     18 C2B          5.6790    -0.2960    -3.7000 cd         1 DE9      -0.052200
     19 C3B          5.2950     0.0110    -4.9680 cc         1 DE9      -0.143000
     20 C4B          3.9500     0.4260    -4.9250 cc         1 DE9       0.047000
     21 CMB          7.0420    -0.7830    -3.2820 c3         1 DE9      -0.022900
     22 NC           1.0260     0.9550    -4.9520 nc         1 DE9      -0.377000
     23 C1C          1.8690     1.1890    -5.9610 cd         1 DE9       0.106600
     24 C2C          1.1240     1.8580    -7.0370 cd         1 DE9      -0.125200
     25 C3C         -0.1630     1.9290    -6.6280 cc         1 DE9      -0.123000
     26 C4C         -0.2130     1.3080    -5.2980 cc         1 DE9      -0.108000
     27 CMC          1.6850     2.3650    -8.3400 c3         1 DE9      -0.014900
     28 ND          -0.2920     0.5190    -2.4130 na         1 DE9      -0.285100
     29 C1D         -1.3840     0.7490    -3.2230 cd         1 DE9      -0.084100
     30 C2D         -2.5420     0.5220    -2.4570 cc         1 DE9      -0.059300
     31 C3D         -2.1560     0.2090    -1.1920 cc         1 DE9      -0.007300
     32 C4D         -0.7510     0.2270    -1.1490 cd         1 DE9      -0.067100
     33 CMD         -3.9630     0.6120    -2.9530 c3         1 DE9      -0.025800
     34 CAD         -3.0740    -0.1030    -0.0380 c3         1 DE9      -0.015100
     35 CBD         -3.3560    -1.6070    -0.0030 c3         1 DE9      -0.175400
     36 CGD         -4.2740    -1.9190     1.1510 c          1 DE9       0.894600
     37 O1D         -4.6600    -3.1850     1.3780 o          1 DE9      -0.846800
     38 O2D         -4.6630    -1.0300     1.8700 o          1 DE9      -0.846800
     39 H1           0.5200     0.1840    -0.9320 ha         1 DE9       0.263000
     40 H2           3.6700    -0.0050    -1.9400 ha         1 DE9       0.302000
     41 H3           2.7150     0.7650    -5.0780 ha         1 DE9       0.297000
     42 H4          -0.4360     0.9640    -4.0680 ha         1 DE9       0.313000
     43 H5           4.9070     0.8820     2.0990 hc         1 DE9       0.042700
     44 H6           5.5930    -0.4030     1.0940 hc         1 DE9       0.042700
     45 H7           4.5830    -0.8130     2.4880 hc         1 DE9       0.042700
     46 H8           0.7990    -0.4750     2.7240 hc         1 DE9       0.072700
     47 H9           2.4700    -0.3790     3.2960 hc         1 DE9       0.072700
     48 H10          2.4490     2.0700     2.9490 hc         1 DE9       0.030700
     49 H11          0.7770     1.9740     2.3770 hc         1 DE9       0.030700
     50 H13          2.5760     0.4570    -3.3030 hn         1 DE9       0.485800
     51 H14          5.9280    -0.0070    -5.8470 ha         1 DE9       0.159000
     52 H15          7.4950    -0.0610    -2.6130 hc         1 DE9       0.046033
     53 H16          7.6670    -0.9040    -4.1580 hc         1 DE9       0.046033
     54 H17          6.9450    -1.7350    -2.7740 hc         1 DE9       0.046033
     55 H18         -1.0160     2.1730    -7.2500 ha         1 DE9       0.153000
     56 H19          2.1000     1.5360    -8.9010 hc         1 DE9       0.038367
     57 H20          0.8950     2.8310    -8.9170 hc         1 DE9       0.038367
     58 H21          2.4630     3.0910    -8.1400 hc         1 DE9       0.038367
     59 H22          0.6460     0.3840    -2.7330 hn         1 DE9       0.329700
     60 H23         -4.5620     1.1590    -2.2350 hc         1 DE9       0.055033
     61 H24         -3.9800     1.1280    -3.9060 hc         1 DE9       0.055033
     62 H25         -4.3660    -0.3860    -3.0750 hc         1 DE9       0.055033
     63 H26         -2.6030     0.1970     0.8900 hc         1 DE9       0.080700
     64 H27         -4.0060     0.4360    -0.1610 hc         1 DE9       0.080700
     65 H28         -3.8270    -1.9070    -0.9310 hc         1 DE9       0.031200
     66 H29         -2.4240    -2.1460     0.1200 hc         1 DE9       0.031200
@<TRIPOS>BOND
     1    38    36 1
     2    36    37 1
     3    36    35 1
     4    14    13 1
     5    35    34 1
     6    15    13 1
     7    13    12 1
     8    33    30 1
     9    34    31 1
    10    12    11 1
    11    30    31 1
    12    30    29 2
    13    31    32 2
    14    29     4 1
    15    29    28 1
    16    32     1 1
    17    32    28 1
    18     4    26 2
    19    25    26 1
    20    25    24 2
    21     1     6 2
    22    11     7 1
    23    26    22 1
    24    27    24 1
    25    24    23 1
    26     6     7 1
    27     6     5 1
    28     7     8 2
    29    22    23 2
    30    23     3 1
    31     5     9 2
    32     8    10 1
    33     8     9 1
    34     9     2 1
    35     3    20 2
    36    16    20 1
    37    16    17 1
    38    20    19 1
    39     2    17 2
    40    17    18 1
    41    19    18 2
    42    18    21 1
    43     1    39 1
    44     2    40 1
    45     3    41 1
    46     4    42 1
    47    10    43 1
    48    10    44 1
    49    10    45 1
    50    11    46 1
    51    11    47 1
    52    12    48 1
    53    12    49 1
    54    16    50 1
    55    19    51 1
    56    21    52 1
    57    21    53 1
    58    21    54 1
    59    25    55 1
    60    27    56 1
    61    27    57 1
    62    27    58 1
    63    28    59 1
    64    33    60 1
    65    33    61 1
    66    33    62 1
    67    34    63 1
    68    34    64 1
    69    35    65 1
    70    35    66 1
@<TRIPOS>SUBSTRUCTURE
     1 DE9         1 TEMP              0 ****  ****    0 ROOT
