@<TRIPOS>MOLECULE
DE9
   66    70     1     0     0
SMALL
bcc


@<TRIPOS>ATOM
      1 CHA         0.6220   -1.2290   -0.0410 ce        1 DE9     -0.075600
      2 CHB         4.9970   -0.3390   -1.5730 ce        1 DE9     -0.127200
      3 CHC         3.5120    1.8420   -5.0080 ce        1 DE9     -0.146200
      4 CHD        -0.9820    0.8910   -3.8960 ce        1 DE9     -0.063600
      5 NA          3.0470   -1.3620   -0.3220 nd        1 DE9     -0.579300
      6 C1A         1.8550   -0.6540    0.0870 cc        1 DE9      0.348900
      7 C2A         2.2020    0.7750    0.3260 cc        1 DE9     -0.155800
      8 C3A         3.5240    0.9160   -0.0220 cd        1 DE9     -0.146200
      9 C4A         3.9490   -0.4180   -0.5680 cd        1 DE9      0.135600
     10 CMA         4.3910    2.0880    0.0780 c3        1 DE9     -0.050900
     11 CAA         1.3130    1.7740    0.9400 c3        1 DE9     -0.037200
     12 CBA         1.1610    3.0360    0.1120 c3        1 DE9     -0.200400
     13 CGA         1.9200    4.2550    0.6620 c         1 DE9      0.904600
     14 O1A         2.3570    4.2460    1.8490 o         1 DE9     -0.853800
     15 O2A         2.0800    5.2330   -0.1290 o         1 DE9     -0.853800
     16 NB          5.1870    0.2750   -3.9830 na        1 DE9     -0.215100
     17 C1B         4.6990   -0.5540   -2.8780 cc        1 DE9     -0.034100
     18 C2B         3.5550   -1.3290   -3.4460 cd        1 DE9     -0.046300
     19 C3B         3.0730   -0.6020   -4.4970 cd        1 DE9     -0.131000
     20 C4B         3.9270    0.6050   -4.6400 cc        1 DE9     -0.023100
     21 CMB         3.1260   -2.6560   -3.0000 c3        1 DE9     -0.040800
     22 NC          1.0200    1.5030   -5.2050 nd        1 DE9     -0.574300
     23 C1C         2.1060    2.1770   -4.8320 cd        1 DE9      0.130600
     24 C2C         1.8140    3.1350   -3.7070 cd        1 DE9     -0.120200
     25 C3C         0.5520    2.8180   -3.2810 cc        1 DE9     -0.248600
     26 C4C         0.0480    1.7460   -4.1700 cc        1 DE9      0.329900
     27 CMC         2.7360    4.1390   -3.1810 c3        1 DE9     -0.066900
     28 ND         -0.2820    0.4660   -1.5750 na        1 DE9     -0.513800
     29 C1D        -1.2700    0.4340   -2.5670 cc        1 DE9     -0.005000
     30 C2D        -2.2690   -0.4970   -2.1450 cc        1 DE9     -0.076200
     31 C3D        -1.7800   -1.1450   -0.9710 cd        1 DE9     -0.072200
     32 C4D        -0.4930   -0.5940   -0.6870 cd        1 DE9      0.020000
     33 CMD        -3.5430   -0.7670   -2.8110 c3        1 DE9     -0.065900
     34 CAD        -2.4700   -2.2110   -0.2260 c3        1 DE9     -0.018200
     35 CBD        -2.5160   -3.5280   -0.9810 c3        1 DE9     -0.193400
     36 CGD        -3.9240   -4.1480   -0.9740 c         1 DE9      0.906600
     37 O1D        -4.0390   -5.3630   -0.6430 o         1 DE9     -0.854300
     38 O2D        -4.9030   -3.4240   -1.3270 o         1 DE9     -0.854300
     39 H1          0.4940   -2.3200    0.1020 ha        1 DE9      0.155000
     40 H2          5.9020    0.2120   -1.2700 ha        1 DE9      0.135000
     41 H3          4.2030    2.6840   -5.1510 ha        1 DE9      0.135000
     42 H4         -1.4810    0.3210   -4.7000 ha        1 DE9      0.145000
     43 H5          3.9300    2.8580    0.7580 hc        1 DE9      0.053700
     44 H6          5.3970    1.8040    0.4760 hc        1 DE9      0.053700
     45 H7          4.5310    2.5590   -0.9290 hc        1 DE9      0.053700
     46 H8          1.7380    2.0670    1.9460 hc        1 DE9      0.065200
     47 H9          0.3050    1.3120    1.1210 hc        1 DE9      0.065200
     48 H10         1.5240    2.8660   -0.9350 hc        1 DE9      0.032700
     49 H11         0.0790    3.3170    0.0570 hc        1 DE9      0.032700
     50 H13         5.6800    1.0860   -3.6650 hn        1 DE9      0.218700
     51 H14         2.2370   -0.8230   -5.1570 ha        1 DE9      0.175000
     52 H15         3.8430   -3.0870   -2.2590 hc        1 DE9      0.055367
     53 H16         2.1130   -2.6050   -2.5230 hc        1 DE9      0.055367
     54 H17         3.0590   -3.3490   -3.8770 hc        1 DE9      0.055367
     55 H18        -0.0260    3.2660   -2.4740 ha        1 DE9      0.173000
     56 H19         2.3710    4.5540   -2.1960 hc        1 DE9      0.061033
     57 H20         3.7480    3.6920   -3.0140 hc        1 DE9      0.061033
     58 H21         2.8440    4.9850   -3.9060 hc        1 DE9      0.061033
     59 H22         0.5580    0.9970   -1.6230 hn        1 DE9      0.475800
     60 H23        -4.0150   -1.7050   -2.3970 hc        1 DE9      0.060700
     61 H24        -4.2530    0.0840   -2.6500 hc        1 DE9      0.060700
     62 H25        -3.3930   -0.8890   -3.9140 hc        1 DE9      0.060700
     63 H26        -3.5290   -1.8770   -0.0280 hc        1 DE9      0.054200
     64 H27        -1.9710   -2.3610    0.7680 hc        1 DE9      0.054200
     65 H28        -1.7910   -4.2520   -0.5330 hc        1 DE9      0.028700
     66 H29        -2.2300   -3.3750   -2.0530 hc        1 DE9      0.028700
@<TRIPOS>BOND
     1    1    6 1   
     2    1   32 2   
     3    1   39 1   
     4    2    9 2   
     5    2   17 1   
     6    2   40 1   
     7    3   20 1   
     8    3   23 2   
     9    3   41 1   
    10    4   26 1   
    11    4   29 2   
    12    4   42 1   
    13    5    6 2   
    14    5    9 1   
    15    6    7 1   
    16    7    8 2   
    17    7   11 1   
    18    8    9 1   
    19    8   10 1   
    20   10   43 1   
    21   10   44 1   
    22   10   45 1   
    23   11   12 1   
    24   11   46 1   
    25   11   47 1   
    26   12   13 1   
    27   12   48 1   
    28   12   49 1   
    29   13   14 1   
    30   13   15 1   
    31   16   17 1   
    32   16   20 1   
    33   16   50 1   
    34   17   18 2   
    35   18   19 1   
    36   18   21 1   
    37   19   20 2   
    38   19   51 1   
    39   21   52 1   
    40   21   53 1   
    41   21   54 1   
    42   22   23 1   
    43   22   26 2   
    44   23   24 1   
    45   24   25 2   
    46   24   27 1   
    47   25   26 1   
    48   25   55 1   
    49   27   56 1   
    50   27   57 1   
    51   27   58 1   
    52   28   29 1   
    53   28   32 1   
    54   28   59 1   
    55   29   30 1   
    56   30   31 2   
    57   30   33 1   
    58   31   32 1   
    59   31   34 1   
    60   33   60 1   
    61   33   61 1   
    62   33   62 1   
    63   34   35 1   
    64   34   63 1   
    65   34   64 1   
    66   35   36 1   
    67   35   65 1   
    68   35   66 1   
    69   36   37 1   
    70   36   38 1   
@<TRIPOS>SUBSTRUCTURE
     1 DE9         1 TEMP              0 ****  ****    0 ROOT
