@<TRIPOS>MOLECULE
molecule
   28    29     1     0     0
SMALL
bcc


@<TRIPOS>ATOM
      1 N9           0.0000     0.0000     0.0000 na         1 DEA      -0.229000
      2 C8           1.3630     0.0000     0.0000 cc         1 DEA       0.419700
      3 N7           1.8080     0.0000     1.2230 nd         1 DEA      -0.609100
      4 C5           0.7610     0.0050     2.0840 ca         1 DEA      -0.205200
      5 C6           0.6330    -0.0010     3.4820 ca         1 DEA       0.770200
      6 N6           1.7510    -0.0040     4.2970 nv         1 DEA      -1.017500
      7 N1          -0.5880    -0.0030     4.0050 nb         1 DEA      -0.833000
      8 C2          -1.6610    -0.0020     3.2360 ca         1 DEA       0.712900
      9 N3          -1.5890    -0.0010     1.9220 nb         1 DEA      -0.745000
     10 C4          -0.4110    -0.0010     1.3090 ca         1 DEA       0.477800
     11 C1'         -0.8660     0.0010    -1.1800 c3         1 DEA       0.032300
     12 C2'         -1.1680    -1.4410    -1.5920 c3         1 DEA       0.157100
     13 O2'         -1.8260    -2.1140    -0.5190 oh         1 DEA      -0.578800
     14 C3'         -2.0730    -1.4400    -2.8260 c3         1 DEA       0.015100
     15 O3'         -1.4140    -0.7660    -3.8990 oh         1 DEA      -0.622800
     16 C4'         -2.3700    -2.8600    -3.2320 c          1 DEA       0.869600
     17 O           -2.0520    -3.2540    -4.3280 o          1 DEA      -0.831300
     18 OXT         -2.9890    -3.6870    -2.3750 o          1 DEA      -0.831300
     19 H8           1.9850     0.0010    -0.8870 h5         1 DEA       0.077800
     20 HN61         2.5660     0.5120     4.0290 hn         1 DEA       0.438800
     21 HN62         1.7360    -0.4990     5.1660 hn         1 DEA       0.438800
     22 H2          -2.6380    -0.0030     3.7050 h5         1 DEA       0.054100
     23 H1'1        -1.7930     0.5120    -0.9470 h1         1 DEA       0.074200
     24 H1'2        -0.3670     0.5120    -1.9940 h1         1 DEA       0.074200
     25 H2'         -0.2410    -1.9510    -1.8240 h1         1 DEA       0.040700
     26 HO'2        -1.4850    -2.9900    -0.4410 ho         1 DEA       0.422000
     27 H3'         -3.0000    -0.9300    -2.5930 h1         1 DEA       0.034700
     28 HO'3        -2.0580    -0.3750    -4.4670 ho         1 DEA       0.393000
@<TRIPOS>BOND
     1     1     2 1
     2     1    10 1
     3     1    11 1
     4     2     3 2
     5     2    19 1
     6     3     4 1
     7     4     5 ar
     8     4    10 ar
     9     5     6 1
    10     5     7 ar
    11     6    20 1
    12     6    21 1
    13     7     8 ar
    14     8     9 ar
    15     8    22 1
    16     9    10 ar
    17    11    12 1
    18    11    23 1
    19    11    24 1
    20    12    13 1
    21    12    14 1
    22    12    25 1
    23    13    26 1
    24    14    15 1
    25    14    16 1
    26    14    27 1
    27    15    28 1
    28    16    17 1
    29    16    18 1
@<TRIPOS>SUBSTRUCTURE
     1 DEA         1 TEMP              0 ****  ****    0 ROOT
