@<TRIPOS>MOLECULE
molecule
   65    65     1     0     0
SMALL
bcc


@<TRIPOS>ATOM
      1 C1           0.0000     0.0000     0.0000 c          1 DEB       0.640100
      2 C2           1.5060     0.0000     0.0000 c3         1 DEB      -0.143700
      3 C3           1.9420     0.0000     1.4480 c3         1 DEB       0.143100
      4 C4           2.6710     1.3530     1.7450 c3         1 DEB      -0.124700
      5 C5           2.4050     1.8170     3.1060 c3         1 DEB       0.160100
      6 C6           1.7930     3.2480     3.1150 c3         1 DEB      -0.096700
      7 C7           0.5680     3.2250     2.1450 c3         1 DEB      -0.073400
      8 C8          -0.0230     4.6800     1.9780 c3         1 DEB      -0.181700
      9 C9          -1.5200     4.6350     2.0480 c          1 DEB       0.564100
     10 C10         -2.3530     4.2280     0.8140 c3         1 DEB      -0.200700
     11 C11         -2.1080     2.7340     0.5620 c3         1 DEB       0.142100
     12 C12         -2.4780     2.3130    -0.8500 c3         1 DEB      -0.072700
     13 C13         -2.0690     0.8080    -1.0270 c3         1 DEB       0.149100
     14 C14         -2.7220     0.3270    -2.3560 c3         1 DEB      -0.087400
     15 C15         -2.4730    -1.1700    -2.5360 c3         1 DEB      -0.094100
     16 O16         -0.6940     0.6660    -1.0370 os         1 DEB      -0.454900
     17 O17         -0.6370    -0.5020     0.8800 o          1 DEB      -0.500000
     18 C18          1.9570    -1.2920    -0.6070 c3         1 DEB      -0.097100
     19 O19          2.8180    -1.0930     1.7200 oh         1 DEB      -0.589800
     20 C20          4.2460     1.0960     1.6100 c3         1 DEB      -0.074100
     21 O21          3.5820     1.8860     3.8870 oh         1 DEB      -0.601800
     22 C22          2.8430     4.2770     2.6880 c3         1 DEB      -0.083100
     23 C23          0.4250     5.3120     0.6170 c3         1 DEB      -0.083100
     24 O24         -2.0610     4.9930     3.0500 o          1 DEB      -0.509100
     25 C25         -3.7930     4.3600     1.1550 c3         1 DEB      -0.083100
     26 O26         -2.8560     1.9250     1.5360 oh         1 DEB      -0.605800
     27 C27         -1.6050     3.0880    -1.7820 c3         1 DEB      -0.092100
     28 H2           1.9040     0.8530    -0.5360 hc         1 DEB       0.086700
     29 H3           1.0670    -0.0790     2.0830 h1         1 DEB       0.107700
     30 H4           2.3590     2.1050     1.0310 hc         1 DEB       0.067700
     31 H5           1.7090     1.1350     3.5790 h1         1 DEB       0.037700
     32 H6           1.4510     3.4820     4.1160 hc         1 DEB       0.057700
     33 H71         -0.1960     2.5720     2.5490 hc         1 DEB       0.048700
     34 H72          0.8830     2.8520     1.1780 hc         1 DEB       0.048700
     35 H8           0.3440     5.3000     2.7870 hc         1 DEB       0.083700
     36 H10         -2.0950     4.8240    -0.0530 hc         1 DEB       0.087700
     37 H11         -1.0510     2.5390     0.7040 h1         1 DEB       0.039700
     38 H12         -3.5290     2.4720    -1.0570 hc         1 DEB       0.080700
     39 H13         -2.4760     0.2330    -0.2050 h1         1 DEB       0.082700
     40 H141        -2.2880     0.8680    -3.1880 hc         1 DEB       0.050700
     41 H142        -3.7890     0.5140    -2.3220 hc         1 DEB       0.050700
     42 H151        -3.1370    -1.5580    -3.2980 hc         1 DEB       0.036700
     43 H152        -2.6590    -1.6830    -1.6000 hc         1 DEB       0.036700
     44 H153        -1.4450    -1.3320    -2.8370 hc         1 DEB       0.036700
     45 H181         1.4440    -1.4470    -1.5480 hc         1 DEB       0.054700
     46 H182         1.7270    -2.1080     0.0680 hc         1 DEB       0.054700
     47 H183         3.0250    -1.2560    -0.7800 hc         1 DEB       0.054700
     48 HO9          3.5230    -1.0930     1.0950 ho         1 DEB       0.407000
     49 H201         4.4700     0.7460     0.6100 hc         1 DEB       0.042367
     50 H202         4.5530     0.3490     2.3320 hc         1 DEB       0.042367
     51 H203         4.7800     2.0200     1.7970 hc         1 DEB       0.042367
     52 HO1          3.3910     1.6080     4.7680 ho         1 DEB       0.405000
     53 H221         3.7680     4.0910     3.2210 hc         1 DEB       0.040700
     54 H222         3.0180     4.1930     1.6220 hc         1 DEB       0.040700
     55 H223         2.4870     5.2730     2.9190 hc         1 DEB       0.040700
     56 H231        -0.3620     5.9540     0.2400 hc         1 DEB       0.040367
     57 H232         1.3250     5.8960     0.7690 hc         1 DEB       0.040367
     58 H233         0.6230     4.5240    -0.1000 hc         1 DEB       0.040367
     59 H251        -4.0540     5.4090     1.2240 hc         1 DEB       0.046700
     60 H252        -3.9850     3.8760     2.1050 hc         1 DEB       0.046700
     61 H253        -4.3910     3.8900     0.3830 hc         1 DEB       0.046700
     62 HO6         -2.6330     2.2010     2.4100 ho         1 DEB       0.404000
     63 H271        -1.6040     2.6140    -2.7560 hc         1 DEB       0.039033
     64 H272        -0.5940     3.1140    -1.3920 hc         1 DEB       0.039033
     65 H273        -1.9820     4.1000    -1.8720 hc         1 DEB       0.039033
@<TRIPOS>BOND
     1     1     2 1
     2     1    16 1
     3     1    17 2
     4     2     3 1
     5     2    18 1
     6     2    28 1
     7     3     4 1
     8     3    19 1
     9     3    29 1
    10     4     5 1
    11     4    20 1
    12     4    30 1
    13     5     6 1
    14     5    21 1
    15     5    31 1
    16     6     7 1
    17     6    22 1
    18     6    32 1
    19     7     8 1
    20     7    33 1
    21     7    34 1
    22     8     9 1
    23     8    23 1
    24     8    35 1
    25     9    10 1
    26     9    24 2
    27    10    11 1
    28    10    25 1
    29    10    36 1
    30    11    12 1
    31    11    26 1
    32    11    37 1
    33    12    13 1
    34    12    27 1
    35    12    38 1
    36    13    14 1
    37    13    16 1
    38    13    39 1
    39    14    15 1
    40    14    40 1
    41    14    41 1
    42    15    42 1
    43    15    43 1
    44    15    44 1
    45    18    45 1
    46    18    46 1
    47    18    47 1
    48    19    48 1
    49    20    49 1
    50    20    50 1
    51    20    51 1
    52    21    52 1
    53    22    53 1
    54    22    54 1
    55    22    55 1
    56    23    56 1
    57    23    57 1
    58    23    58 1
    59    25    59 1
    60    25    60 1
    61    25    61 1
    62    26    62 1
    63    27    63 1
    64    27    64 1
    65    27    65 1
@<TRIPOS>SUBSTRUCTURE
     1 DEB         1 TEMP              0 ****  ****    0 ROOT
