@<TRIPOS>MOLECULE
DEB
   65    65     1     0     0
SMALL
bcc


@<TRIPOS>ATOM
      1 C1         -0.0170   -0.1860    0.2700 c         1 DEB      0.635100
      2 C2          1.4250   -0.6280    0.1710 c3        1 DEB     -0.144700
      3 C3          2.1840   -0.1170    1.4100 c3        1 DEB      0.135100
      4 C4          2.4380    1.3990    1.3050 c3        1 DEB     -0.135700
      5 C5          2.4110    2.0210    2.7130 c3        1 DEB      0.153100
      6 C6          1.9500    3.4910    2.7730 c3        1 DEB     -0.054700
      7 C7          0.5910    3.6120    2.0980 c3        1 DEB     -0.080400
      8 C8         -0.3900    4.5590    2.7750 c3        1 DEB     -0.158700
      9 C9         -1.8040    4.2040    2.3470 c         1 DEB      0.568100
     10 C10        -2.0680    4.0500    0.8610 c3        1 DEB     -0.200700
     11 C11        -2.2790    2.5550    0.5570 c3        1 DEB      0.150100
     12 C12        -2.0970    2.1650   -0.9190 c3        1 DEB     -0.075700
     13 C13        -1.9010    0.6410   -1.0060 c3        1 DEB      0.144100
     14 C14        -2.3500    0.0910   -2.3580 c3        1 DEB     -0.084400
     15 C15        -2.3850   -1.4150   -2.3630 c3        1 DEB     -0.094100
     16 O16        -0.4930    0.3250   -0.9010 os        1 DEB     -0.440900
     17 O17        -0.7550   -0.2440    1.2550 o         1 DEB     -0.542000
     18 C18         1.4610   -2.1400    0.0810 c3        1 DEB     -0.089100
     19 O19         3.3790   -0.8390    1.6330 oh        1 DEB     -0.590800
     20 C20         3.7190    1.6950    0.5590 c3        1 DEB     -0.095100
     21 O21         3.6820    1.9490    3.3420 oh        1 DEB     -0.599800
     22 C22         2.9670    4.4490    2.1950 c3        1 DEB     -0.090100
     23 C23        -0.1150    6.0130    2.4610 c3        1 DEB     -0.089100
     24 O24        -2.6950    4.0180    3.1820 o         1 DEB     -0.534100
     25 C25        -3.2600    4.8830    0.4430 c3        1 DEB     -0.082100
     26 O26        -3.5980    2.1500    0.9000 oh        1 DEB     -0.602800
     27 C27        -0.9660    2.9020   -1.5970 c3        1 DEB     -0.086100
     28 H2          1.8820   -0.1860   -0.7580 hc        1 DEB      0.081700
     29 H3          1.5620   -0.3540    2.3260 h1        1 DEB      0.100700
     30 H4          1.5810    1.8350    0.7150 hc        1 DEB      0.064700
     31 H5          1.6740    1.4310    3.3400 h1        1 DEB      0.036700
     32 H6          1.8440    3.7290    3.8710 hc        1 DEB      0.065700
     33 H71         0.7370    3.9290    1.0300 hc        1 DEB      0.047700
     34 H72         0.1090    2.5940    2.0840 hc        1 DEB      0.047700
     35 H8         -0.3270    4.4160    3.8920 hc        1 DEB      0.081700
     36 H10        -1.1620    4.4130    0.3030 hc        1 DEB      0.073700
     37 H11        -1.5440    1.9560    1.1730 h1        1 DEB      0.050700
     38 H12        -3.0630    2.4070   -1.4490 hc        1 DEB      0.077700
     39 H13        -2.4730    0.1410   -0.1740 h1        1 DEB      0.097700
     40 H141       -1.6550    0.4580   -3.1570 hc        1 DEB      0.053700
     41 H142       -3.3740    0.4950   -2.5770 hc        1 DEB      0.053700
     42 H151       -3.1210   -1.7970   -1.6140 hc        1 DEB      0.037700
     43 H152       -1.3790   -1.8280   -2.1090 hc        1 DEB      0.037700
     44 H153       -2.6800   -1.7900   -3.3720 hc        1 DEB      0.037700
     45 H181        1.0050   -2.5950    0.9930 hc        1 DEB      0.053033
     46 H182        2.5190   -2.4890    0.0040 hc        1 DEB      0.053033
     47 H183        0.8980   -2.4860   -0.8200 hc        1 DEB      0.053033
     48 HO9         3.9250   -0.7640    0.8390 ho        1 DEB      0.403000
     49 H201        3.8160    2.7920    0.3740 hc        1 DEB      0.043367
     50 H202        3.7240    1.1680   -0.4260 hc        1 DEB      0.043367
     51 H203        4.6100    1.3670    1.1490 hc        1 DEB      0.043367
     52 HO1         3.9530    1.0210    3.2960 ho        1 DEB      0.415000
     53 H221        2.9010    4.4920    1.0810 hc        1 DEB      0.040033
     54 H222        3.9990    4.1280    2.4800 hc        1 DEB      0.040033
     55 H223        2.7960    5.4800    2.5910 hc        1 DEB      0.040033
     56 H231        0.8990    6.2960    2.8330 hc        1 DEB      0.043367
     57 H232       -0.8720    6.6660    2.9590 hc        1 DEB      0.043367
     58 H233       -0.1530    6.2000    1.3600 hc        1 DEB      0.043367
     59 H251       -3.4780    4.7090   -0.6380 hc        1 DEB      0.046700
     60 H252       -3.0500    5.9680    0.6020 hc        1 DEB      0.046700
     61 H253       -4.1610    4.6000    1.0390 hc        1 DEB      0.046700
     62 HO6        -3.7320    2.3930    1.8280 ho        1 DEB      0.423000
     63 H271       -1.2440    3.9680   -1.7830 hc        1 DEB      0.039367
     64 H272       -0.7360    2.4200   -2.5790 hc        1 DEB      0.039367
     65 H273       -0.0400    2.8680   -0.9710 hc        1 DEB      0.039367
@<TRIPOS>BOND
     1    1    2 1   
     2    1   16 1   
     3    1   17 2   
     4    2    3 1   
     5    2   18 1   
     6    2   28 1   
     7    3    4 1   
     8    3   19 1   
     9    3   29 1   
    10    4    5 1   
    11    4   20 1   
    12    4   30 1   
    13    5    6 1   
    14    5   21 1   
    15    5   31 1   
    16    6    7 1   
    17    6   22 1   
    18    6   32 1   
    19    7    8 1   
    20    7   33 1   
    21    7   34 1   
    22    8    9 1   
    23    8   23 1   
    24    8   35 1   
    25    9   10 1   
    26    9   24 2   
    27   10   11 1   
    28   10   25 1   
    29   10   36 1   
    30   11   12 1   
    31   11   26 1   
    32   11   37 1   
    33   12   13 1   
    34   12   27 1   
    35   12   38 1   
    36   13   14 1   
    37   13   16 1   
    38   13   39 1   
    39   14   15 1   
    40   14   40 1   
    41   14   41 1   
    42   15   42 1   
    43   15   43 1   
    44   15   44 1   
    45   18   45 1   
    46   18   46 1   
    47   18   47 1   
    48   19   48 1   
    49   20   49 1   
    50   20   50 1   
    51   20   51 1   
    52   21   52 1   
    53   22   53 1   
    54   22   54 1   
    55   22   55 1   
    56   23   56 1   
    57   23   57 1   
    58   23   58 1   
    59   25   59 1   
    60   25   60 1   
    61   25   61 1   
    62   26   62 1   
    63   27   63 1   
    64   27   64 1   
    65   27   65 1   
@<TRIPOS>SUBSTRUCTURE
     1 DEB         1 TEMP              0 ****  ****    0 ROOT
