@<TRIPOS>MOLECULE
DEC
   30    29     1     0     0
SMALL
bcc


@<TRIPOS>ATOM
      1 C1          0.0050    0.0550    0.0610 c         1 DEC      0.905600
      2 O1          1.0020    0.8170    0.2290 o         1 DEC     -0.861300
      3 O2         -0.4410   -0.7130    0.9650 o         1 DEC     -0.861300
      4 C2         -0.7300    0.0790   -1.2880 c3        1 DEC     -0.188400
      5 C3          0.2180   -0.0600   -2.4540 c3        1 DEC     -0.064400
      6 C4         -0.4940    0.1010   -3.7830 c3        1 DEC     -0.078400
      7 C5          0.4460   -0.0800   -4.9560 c3        1 DEC     -0.078400
      8 C6         -0.2700    0.0810   -6.2810 c3        1 DEC     -0.078400
      9 C7          0.6700   -0.1020   -7.4540 c3        1 DEC     -0.078400
     10 C8         -0.0420    0.0630   -8.7820 c3        1 DEC     -0.064400
     11 C9          0.9060   -0.0830   -9.9490 c3        1 DEC     -0.188400
     12 C10         0.1720   -0.0550  -11.2980 c         1 DEC      0.905600
     13 O3         -0.8350   -0.8040  -11.4640 o         1 DEC     -0.861300
     14 O4          0.6270    0.7050  -12.2040 o         1 DEC     -0.861300
     15 H21        -1.2790    1.0530   -1.3610 hc        1 DEC      0.017700
     16 H22        -1.4890   -0.7440   -1.3080 hc        1 DEC      0.017700
     17 H31         1.0290    0.7100   -2.3560 hc        1 DEC      0.039950
     18 H32         0.7130   -1.0660   -2.4150 hc        1 DEC      0.039950
     19 H41        -0.9630    1.1190   -3.8340 hc        1 DEC      0.024700
     20 H42        -1.3270   -0.6470   -3.8540 hc        1 DEC      0.024700
     21 H51         1.2790    0.6690   -4.8860 hc        1 DEC      0.030700
     22 H52         0.9160   -1.0980   -4.9050 hc        1 DEC      0.030700
     23 H61        -0.7380    1.0990   -6.3320 hc        1 DEC      0.030700
     24 H62        -1.1030   -0.6660   -6.3510 hc        1 DEC      0.030700
     25 H71         1.5050    0.6440   -7.3820 hc        1 DEC      0.024700
     26 H72         1.1350   -1.1210   -7.4040 hc        1 DEC      0.024700
     27 H81        -0.8570   -0.7020   -8.8810 hc        1 DEC      0.039950
     28 H82        -0.5300    1.0710   -8.8220 hc        1 DEC      0.039950
     29 H91         1.6700    0.7350   -9.9290 hc        1 DEC      0.017700
     30 H92         1.4490   -1.0600   -9.8760 hc        1 DEC      0.017700
@<TRIPOS>BOND
     1    1    2 1   
     2    1    3 1   
     3    1    4 1   
     4    4    5 1   
     5    4   15 1   
     6    4   16 1   
     7    5    6 1   
     8    5   17 1   
     9    5   18 1   
    10    6    7 1   
    11    6   19 1   
    12    6   20 1   
    13    7    8 1   
    14    7   21 1   
    15    7   22 1   
    16    8    9 1   
    17    8   23 1   
    18    8   24 1   
    19    9   10 1   
    20    9   25 1   
    21    9   26 1   
    22   10   11 1   
    23   10   27 1   
    24   10   28 1   
    25   11   12 1   
    26   11   29 1   
    27   11   30 1   
    28   12   13 1   
    29   12   14 1   
@<TRIPOS>SUBSTRUCTURE
     1 DEC         1 TEMP              0 ****  ****    0 ROOT
