@<TRIPOS>MOLECULE
molecule
   30    29     1     0     0
SMALL
bcc


@<TRIPOS>ATOM
      1 C1           0.0000     0.0000     0.0000 c          1 DEC       0.891600
      2 O1           1.2080     0.0000     0.0000 o          1 DEC      -0.865300
      3 O2          -0.6700     0.0000     1.1620 o          1 DEC      -0.865300
      4 C2          -0.7520     0.0000    -1.3060 c3         1 DEC      -0.182400
      5 C3           0.2410     0.0000    -2.4680 c3         1 DEC      -0.064400
      6 C4          -0.5230     0.0000    -3.7930 c3         1 DEC      -0.088400
      7 C5           0.4700     0.0000    -4.9560 c3         1 DEC      -0.082400
      8 C6          -0.2940     0.0000    -6.2800 c3         1 DEC      -0.082400
      9 C7           0.7000     0.0000    -7.4440 c3         1 DEC      -0.088400
     10 C8          -0.0650     0.0000    -8.7690 c3         1 DEC      -0.064400
     11 C9           0.9280     0.0000    -9.9310 c3         1 DEC      -0.182400
     12 C10          0.1760     0.0000   -11.2370 c          1 DEC       0.891600
     13 O3          -1.0320    -0.0000   -11.2370 o          1 DEC      -0.865300
     14 O4           0.8470     0.0000   -12.3990 o          1 DEC      -0.865300
     15 H21         -1.3750     0.8840    -1.3630 hc         1 DEC       0.025700
     16 H22         -1.3750    -0.8840    -1.3630 hc         1 DEC       0.025700
     17 H31          0.8640     0.8840    -2.4110 hc         1 DEC       0.042700
     18 H32          0.8640    -0.8840    -2.4110 hc         1 DEC       0.042700
     19 H41         -1.1460    -0.8840    -3.8500 hc         1 DEC       0.026700
     20 H42         -1.1460     0.8840    -3.8500 hc         1 DEC       0.026700
     21 H51          1.0930    -0.8840    -4.8990 hc         1 DEC       0.033700
     22 H52          1.0930     0.8840    -4.8990 hc         1 DEC       0.033700
     23 H61         -0.9160    -0.8840    -6.3380 hc         1 DEC       0.033700
     24 H62         -0.9160     0.8840    -6.3380 hc         1 DEC       0.033700
     25 H71          1.3230    -0.8840    -7.3870 hc         1 DEC       0.026700
     26 H72          1.3230     0.8840    -7.3870 hc         1 DEC       0.026700
     27 H81         -0.6880     0.8840    -8.8260 hc         1 DEC       0.042700
     28 H82         -0.6880    -0.8840    -8.8260 hc         1 DEC       0.042700
     29 H91          1.5510     0.8840    -9.8740 hc         1 DEC       0.025700
     30 H92          1.5510    -0.8840    -9.8740 hc         1 DEC       0.025700
@<TRIPOS>BOND
     1     1     2 1
     2     1     3 1
     3     1     4 1
     4     4     5 1
     5     4    15 1
     6     4    16 1
     7     5     6 1
     8     5    17 1
     9     5    18 1
    10     6     7 1
    11     6    19 1
    12     6    20 1
    13     7     8 1
    14     7    21 1
    15     7    22 1
    16     8     9 1
    17     8    23 1
    18     8    24 1
    19     9    10 1
    20     9    25 1
    21     9    26 1
    22    10    11 1
    23    10    27 1
    24    10    28 1
    25    11    12 1
    26    11    29 1
    27    11    30 1
    28    12    13 1
    29    12    14 1
@<TRIPOS>SUBSTRUCTURE
     1 DEC         1 TEMP              0 ****  ****    0 ROOT
