@<TRIPOS>MOLECULE
DED
   24    23     1     0     0
SMALL
bcc


@<TRIPOS>ATOM
      1 O1           0.0000     0.0000     0.0000 o          1 DED      -0.779833
      2 O2           2.1030    -1.2080    -0.6980 o          1 DED      -0.779833
      3 O3           2.1460     1.3150    -0.7580 o          1 DED      -0.779833
      4 P4           1.6110     0.0000     0.0000 p5         1 DED       0.699900
      5 O5           2.1480     0.0000     1.5180 os         1 DED      -0.449800
      6 O6           4.2150     1.2090     0.7240 o          1 DED      -0.673000
      7 O7           4.2560    -1.3130     0.6600 o          1 DED      -0.673000
      8 P8           3.7550    -0.0000     1.4440 p5         1 DED       0.821800
      9 O9           4.3620    -0.0010     2.9330 os         1 DED      -0.474200
     10 C10          5.7840    -0.0000     2.8010 c3         1 DED       0.241400
     11 C11          6.4270    -0.0010     4.1890 c3         1 DED       0.106800
     12 N12          6.0590    -1.2320     4.8980 n3         1 DED      -0.460600
     13 C13          6.8810    -2.3080     4.3310 c3         1 DED       0.162100
     14 C14          6.4910    -1.0620     6.2920 c3         1 DED       0.162100
     15 H101         6.0960     0.8840     2.2590 h1         1 DED       0.003200
     16 H102         6.0960    -0.8850     2.2580 h1         1 DED       0.003200
     17 H111         6.0760     0.8570     4.7490 h1         1 DED      -0.022300
     18 H112         7.5040     0.0500     4.0880 h1         1 DED      -0.022300
     19 H131         6.4320    -2.6570     3.4090 h1         1 DED      -0.013967
     20 H132         7.8770    -1.9330     4.1280 h1         1 DED      -0.013967
     21 H133         6.9410    -3.1270     5.0370 h1         1 DED      -0.013967
     22 H141         6.2600    -1.9590     6.8540 h1         1 DED      -0.013967
     23 H142         7.5590    -0.8840     6.3200 h1         1 DED      -0.013967
     24 H143         5.9730    -0.2180     6.7310 h1         1 DED      -0.013967
@<TRIPOS>BOND
     1     1     4 1   
     2     2     4 1   
     3     3     4 1   
     4     4     5 1   
     5     5     8 1   
     6     6     8 1   
     7     7     8 1   
     8     8     9 1   
     9     9    10 1   
    10    10    11 1   
    11    10    15 1   
    12    10    16 1   
    13    11    12 1   
    14    11    17 1   
    15    11    18 1   
    16    12    13 1   
    17    12    14 1   
    18    13    19 1   
    19    13    20 1   
    20    13    21 1   
    21    14    22 1   
    22    14    23 1   
    23    14    24 1   
@<TRIPOS>SUBSTRUCTURE
     1 DED         1 TEMP              0 ****  ****    0 ROOT
