@<TRIPOS>MOLECULE
molecule
   24    24     1     0     0
SMALL
bcc


@<TRIPOS>ATOM
      1 O7           0.0000     0.0000     0.0000 o          1 DEE      -0.544000
      2 C6           1.2150     0.0000     0.0000 c          1 DEE       0.688700
      3 O8           1.8870     0.0000     1.1670 os         1 DEE      -0.437900
      4 C11          1.1620    -0.0000     2.4250 c3         1 DEE       0.152400
      5 C12          2.1550    -0.0000     3.5880 c3         1 DEE      -0.095100
      6 C1           1.9520     0.0010    -1.2740 cc         1 DEE      -0.342900
      7 C4           2.3770    -1.1360    -1.9980 cc         1 DEE       0.387600
      8 C9           2.1510    -2.5730    -1.6030 c3         1 DEE      -0.117400
      9 C5           2.3620     1.1110    -1.9840 cd         1 DEE      -0.023600
     10 C10          2.1380     2.5500    -1.5970 c3         1 DEE      -0.037800
     11 N2           2.9970     0.6740    -3.0830 na         1 DEE      -0.028600
     12 N3           2.9910    -0.7240    -3.0730 nd         1 DEE      -0.515800
     13 H111         0.5380     0.8840     2.4820 h1         1 DEE       0.045700
     14 H112         0.5390    -0.8850     2.4820 h1         1 DEE       0.045700
     15 H121         2.7780    -0.8840     3.5300 hc         1 DEE       0.047367
     16 H122         1.6130    -0.0010     4.5260 hc         1 DEE       0.047367
     17 H123         2.7770     0.8850     3.5310 hc         1 DEE       0.047367
     18 H91          2.4790    -3.2230    -2.4050 hc         1 DEE       0.057033
     19 H92          2.7160    -2.7930    -0.7050 hc         1 DEE       0.057033
     20 H93          1.0970    -2.7350    -1.4150 hc         1 DEE       0.057033
     21 H101         2.4090     3.1940    -2.4250 hc         1 DEE       0.059033
     22 H102         2.7510     2.7920    -0.7360 hc         1 DEE       0.059033
     23 H103         1.0940     2.7000    -1.3500 hc         1 DEE       0.059033
     24 HN2          3.4040     1.2520    -3.7920 hn         1 DEE       0.333700
@<TRIPOS>BOND
     1     1     2 2
     2     2     3 1
     3     2     6 1
     4     3     4 1
     5     4     5 1
     6     4    13 1
     7     4    14 1
     8     5    15 1
     9     5    16 1
    10     5    17 1
    11     6     7 1
    12     6     9 2
    13     7     8 1
    14     7    12 2
    15     8    18 1
    16     8    19 1
    17     8    20 1
    18     9    10 1
    19     9    11 1
    20    10    21 1
    21    10    22 1
    22    10    23 1
    23    11    12 1
    24    11    24 1
@<TRIPOS>SUBSTRUCTURE
     1 DEE         1 TEMP              0 ****  ****    0 ROOT
