@<TRIPOS>MOLECULE
DEE
   24    24     1     0     0
SMALL
bcc


@<TRIPOS>ATOM
      1 O7          0.9790   -1.3830    0.7080 o         1 DEE     -0.556000
      2 C6          1.4590   -0.3630    0.2010 c         1 DEE      0.690700
      3 O8          1.3870    0.8000    0.9310 os        1 DEE     -0.452900
      4 C11         0.7690    0.7330    2.2240 c3        1 DEE      0.141400
      5 C12         1.7350    0.2150    3.2600 c3        1 DEE     -0.126100
      6 C1          2.0940   -0.2110   -1.0860 cc        1 DEE     -0.323900
      7 C4          2.3310   -1.2740   -2.0550 cc        1 DEE      0.381600
      8 C9          1.9810   -2.6980   -1.8890 c3        1 DEE     -0.142400
      9 C5          2.6090    0.9620   -1.6890 cd        1 DEE     -0.009600
     10 C10         2.6660    2.3410   -1.1790 c3        1 DEE     -0.049800
     11 N2          3.1040    0.5580   -2.9270 na        1 DEE     -0.014600
     12 N3          2.9450   -0.7500   -3.1540 nd        1 DEE     -0.525800
     13 H111        0.4870    1.8030    2.4190 h1        1 DEE      0.060200
     14 H112       -0.1510    0.0930    2.1750 h1        1 DEE      0.060200
     15 H121        2.0070   -0.8450    3.0340 hc        1 DEE      0.048700
     16 H122        2.6690    0.8270    3.2690 hc        1 DEE      0.048700
     17 H123        1.2610    0.2620    4.2690 hc        1 DEE      0.048700
     18 H91         2.9010   -3.2890   -1.6500 hc        1 DEE      0.064700
     19 H92         1.2530   -2.8130   -1.0460 hc        1 DEE      0.064700
     20 H93         1.5280   -3.1120   -2.8230 hc        1 DEE      0.064700
     21 H101        2.6820    3.0940   -2.0050 hc        1 DEE      0.067367
     22 H102        3.5850    2.4740   -0.5530 hc        1 DEE      0.067367
     23 H103        1.7730    2.5330   -0.5290 hc        1 DEE      0.067367
     24 HN2         3.5280    1.1350   -3.6160 hn        1 DEE      0.324700
@<TRIPOS>BOND
     1    1    2 2   
     2    2    3 1   
     3    2    6 1   
     4    3    4 1   
     5    4    5 1   
     6    4   13 1   
     7    4   14 1   
     8    5   15 1   
     9    5   16 1   
    10    5   17 1   
    11    6    7 1   
    12    6    9 2   
    13    7    8 1   
    14    7   12 2   
    15    8   18 1   
    16    8   19 1   
    17    8   20 1   
    18    9   10 1   
    19    9   11 1   
    20   10   21 1   
    21   10   22 1   
    22   10   23 1   
    23   11   12 1   
    24   11   24 1   
@<TRIPOS>SUBSTRUCTURE
     1 DEE         1 TEMP              0 ****  ****    0 ROOT
