@<TRIPOS>MOLECULE
DEG
   36    36     1     0     0
SMALL
bcc


@<TRIPOS>ATOM
      1 C3'         0.1270    0.2200   -0.0420 c3        1 DEG     -0.079400
      2 C4'         1.6230    0.1940    0.1310 c3        1 DEG     -0.092100
      3 C1'        -2.0860    0.1010    1.0880 c3        1 DEG      0.131400
      4 C2'        -0.5820    0.0720    1.2870 c3        1 DEG     -0.083400
      5 C2         -4.5610    0.0170    3.8360 c3        1 DEG      0.093100
      6 O2         -5.9560    0.2510    3.8720 oh        1 DEG     -0.593800
      7 C3         -4.2070   -1.2610    4.6090 c3        1 DEG      0.076100
      8 O3         -4.7900   -1.2770    5.8960 oh        1 DEG     -0.595800
      9 C4         -4.6530   -2.5100    3.8260 c3        1 DEG      0.086100
     10 O4         -4.2110   -3.6950    4.4620 oh        1 DEG     -0.592800
     11 C5         -4.0380   -2.4730    2.4180 c3        1 DEG      0.141100
     12 O5         -4.4740   -1.2820    1.7520 os        1 DEG     -0.444600
     13 C6         -4.5310   -3.6450    1.5680 c3        1 DEG      0.135400
     14 O6         -3.5550   -3.8630    0.5620 oh        1 DEG     -0.597800
     15 O1         -2.6670   -0.0400    2.3910 os        1 DEG     -0.445600
     16 C1         -4.0760   -0.0770    2.3770 c3        1 DEG      0.300900
     17 H3'1       -0.1880   -0.6110   -0.7290 hc        1 DEG      0.040700
     18 H3'2       -0.1810    1.1840   -0.5260 hc        1 DEG      0.040700
     19 H4'1        2.1290    0.3040   -0.8590 hc        1 DEG      0.034700
     20 H4'2        1.9510   -0.7700    0.5890 hc        1 DEG      0.034700
     21 H4'3        1.9590    1.0290    0.7930 hc        1 DEG      0.034700
     22 H1'1       -2.4200    1.0750    0.6420 h1        1 DEG      0.042700
     23 H1'2       -2.4300   -0.7470    0.4380 h1        1 DEG      0.042700
     24 H2'1       -0.2910   -0.8950    1.7750 hc        1 DEG      0.054200
     25 H2'2       -0.2800    0.8990    1.9810 hc        1 DEG      0.054200
     26 H2         -4.1040    0.9120    4.3420 h1        1 DEG      0.109700
     27 HA         -6.3730   -0.3910    3.2800 ho        1 DEG      0.412000
     28 H3         -3.0950   -1.3020    4.7850 h1        1 DEG      0.108700
     29 HB         -5.6930   -0.9400    5.8120 ho        1 DEG      0.417000
     30 H4         -5.7780   -2.5320    3.7580 h1        1 DEG      0.037700
     31 HC         -4.3250   -3.5580    5.4130 ho        1 DEG      0.423000
     32 H5         -2.9150   -2.4800    2.4810 h1        1 DEG      0.092700
     33 H6C1       -4.6230   -4.5540    2.2220 h1        1 DEG      0.045200
     34 H6C2       -5.5220   -3.4010    1.1020 h1        1 DEG      0.045200
     35 H6         -3.8850   -4.5850    0.0150 ho        1 DEG      0.402000
     36 H1         -4.5280    0.7350    1.7390 h2        1 DEG      0.088700
@<TRIPOS>BOND
     1    1    2 1
     2    1    4 1
     3    1   17 1
     4    1   18 1
     5    2   19 1
     6    2   20 1
     7    2   21 1
     8    3    4 1
     9    3   15 1
    10    3   22 1
    11    3   23 1
    12    4   24 1
    13    4   25 1
    14    5    6 1
    15    5    7 1
    16    5   16 1
    17    5   26 1
    18    6   27 1
    19    7    8 1
    20    7    9 1
    21    7   28 1
    22    8   29 1
    23    9   10 1
    24    9   11 1
    25    9   30 1
    26   10   31 1
    27   11   12 1
    28   11   13 1
    29   11   32 1
    30   12   16 1
    31   13   14 1
    32   13   33 1
    33   13   34 1
    34   14   35 1
    35   15   16 1
    36   16   36 1
@<TRIPOS>SUBSTRUCTURE
     1 DEG         1 TEMP              0 ****  ****    0 ROOT
