@<TRIPOS>MOLECULE
molecule
   42    45     1     0     0
SMALL
bcc


@<TRIPOS>ATOM
      1 C2           0.0000     0.0000     0.0000 ca         1 DEH      -0.086000
      2 C3           1.3840     0.0000     0.0000 ca         1 DEH       0.092100
      3 C5           2.0820     0.0000     1.2060 ca         1 DEH       0.173100
      4 C8           1.3930    -0.0090     2.4100 ca         1 DEH      -0.202000
      5 C9           0.0140    -0.0120     2.4140 ca         1 DEH      -0.038300
      6 C10         -0.7550    -0.0380     3.7080 c3         1 DEH      -0.052100
      7 C11         -2.0480     0.7570     3.5560 c3         1 DEH       0.000300
      8 N12         -2.8060     0.3140     2.3810 na         1 DEH       0.072900
      9 C14         -2.1720    -0.0010     1.2450 ca         1 DEH       0.021700
     10 C16         -2.8670    -0.3640     0.1040 ca         1 DEH      -0.091000
     11 C17         -4.2670    -0.4340     0.1560 ca         1 DEH      -0.005000
     12 C25         -5.0390    -0.7900    -0.9600 ca         1 DEH      -0.095000
     13 C24         -6.3960    -0.8550    -0.8520 ca         1 DEH      -0.129000
     14 C21         -7.0360    -0.5720     0.3560 ca         1 DEH       0.137100
     15 O22         -8.3910    -0.6500     0.4320 os         1 DEH      -0.299900
     16 C23         -9.0880    -1.0270    -0.7570 c3         1 DEH       0.118700
     17 C19         -6.3080    -0.2130     1.4740 ca         1 DEH       0.099100
     18 O20         -6.9400     0.0590     2.6460 oh         1 DEH      -0.494100
     19 C18         -4.9070    -0.1320     1.3880 ca         1 DEH      -0.076000
     20 C1          -0.6880     0.0010     1.2090 ca         1 DEH      -0.121000
     21 C13         -4.1170     0.2470     2.4830 ca         1 DEH       0.011700
     22 O6           3.4410     0.0060     1.2030 os         1 DEH      -0.290900
     23 C7           4.0930     0.0050     2.4750 c3         1 DEH       0.119700
     24 O4           2.0630     0.0000    -1.1780 oh         1 DEH      -0.489100
     25 H2          -0.5440     0.0000    -0.9370 ha         1 DEH       0.154000
     26 H8           1.9370    -0.0090     3.3460 ha         1 DEH       0.159000
     27 H10         -0.1530     0.4030     4.4930 hc         1 DEH       0.088700
     28 H10A        -0.9920    -1.0640     3.9640 hc         1 DEH       0.088700
     29 H11         -1.8060     1.8070     3.4470 h1         1 DEH       0.095700
     30 H11A        -2.6550     0.6170     4.4420 h1         1 DEH       0.095700
     31 H16         -2.3350    -0.7730    -0.7460 ha         1 DEH       0.188000
     32 H25         -4.5580    -1.0130    -1.9050 ha         1 DEH       0.166000
     33 H24         -6.9870    -1.1320    -1.7160 ha         1 DEH       0.170000
     34 H23         -8.7570    -2.0080    -1.0740 h1         1 DEH       0.058700
     35 H23A        -8.8820    -0.3060    -1.5400 h1         1 DEH       0.058700
     36 H23B       -10.1530    -1.0510    -0.5590 h1         1 DEH       0.058700
     37 HO20        -7.2560    -0.7430     3.0270 ho         1 DEH       0.441000
     38 H13         -4.5930     0.4900     3.4250 h4         1 DEH       0.209000
     39 H7           3.7980     0.8850     3.0330 h1         1 DEH       0.054367
     40 H7A          5.1670     0.0130     2.3300 h1         1 DEH       0.054367
     41 H7B          3.8100    -0.8840     3.0250 h1         1 DEH       0.054367
     42 HO4          2.0910     0.8770    -1.5250 ho         1 DEH       0.431000
@<TRIPOS>BOND
     1     1     2 ar
     2     1    20 ar
     3     1    25 1
     4     2     3 ar
     5     2    24 1
     6     3     4 ar
     7     3    22 1
     8     4     5 ar
     9     4    26 1
    10     5     6 1
    11     5    20 ar
    12     6     7 1
    13     6    27 1
    14     6    28 1
    15     7     8 1
    16     7    29 1
    17     7    30 1
    18     8     9 1
    19     8    21 2
    20     9    10 ar
    21     9    20 1
    22    10    11 ar
    23    10    31 1
    24    11    12 ar
    25    11    19 ar
    26    12    13 ar
    27    12    32 1
    28    13    14 ar
    29    13    33 1
    30    14    15 1
    31    14    17 ar
    32    15    16 1
    33    16    34 1
    34    16    35 1
    35    16    36 1
    36    17    18 1
    37    17    19 ar
    38    18    37 1
    39    19    21 ar
    40    21    38 1
    41    22    23 1
    42    23    39 1
    43    23    40 1
    44    23    41 1
    45    24    42 1
@<TRIPOS>SUBSTRUCTURE
     1 DEH         1 TEMP              0 ****  ****    0 ROOT
