@<TRIPOS>MOLECULE
molecule
   13    12     1     0     0
SMALL
bcc


@<TRIPOS>ATOM
      1 CAA          0.0000     0.0000     0.0000 c3         1 DEI      -0.019000
      2 SAF          1.8090     0.0000     0.0000 ss         1 DEI      -0.327700
      3 CAE          2.1160     0.0000     1.7350 c2         1 DEI      -0.118400
      4 CAH          3.3880    -0.0000     2.1980 ce         1 DEI       0.076900
      5 CAG          3.6330     0.0000     3.5900 c          1 DEI       0.860800
      6 OAB          4.9020    -0.0000     4.0510 o          1 DEI      -0.832800
      7 OAC          2.7000     0.0000     4.3720 o          1 DEI      -0.832800
      8 OAD          4.4320    -0.0000     1.3210 oh         1 DEI      -0.529100
      9 HAA         -0.3610    -0.0000    -1.0210 h1         1 DEI       0.048700
     10 HAAA        -0.3610    -0.8850     0.5110 h1         1 DEI       0.048700
     11 HAAB        -0.3610     0.8850     0.5110 h1         1 DEI       0.048700
     12 HAE          1.2860     0.0000     2.4310 h4         1 DEI       0.167000
     13 HOAD         4.7150     0.8860     1.1690 ho         1 DEI       0.410000
@<TRIPOS>BOND
     1     1     2 1
     2     2     3 1
     3     3     4 2
     4     4     5 1
     5     4     8 1
     6     5     6 1
     7     5     7 1
     8     1     9 1
     9     1    10 1
    10     1    11 1
    11     3    12 1
    12     8    13 1
@<TRIPOS>SUBSTRUCTURE
     1 DEI         1 TEMP              0 ****  ****    0 ROOT
