@<TRIPOS>MOLECULE
DEI
   13    12     1     0     0
SMALL
bcc


@<TRIPOS>ATOM
      1 CAA         0.0520    0.0110   -0.0920 c3        1 DEI     -0.050000
      2 SAF         1.7750   -0.3030   -0.1940 ss        1 DEI     -0.254700
      3 CAE         2.2140   -0.3240    1.4400 c2        1 DEI     -0.210400
      4 CAH         3.3860    0.0520    1.9840 ce        1 DEI      0.058900
      5 CAG         3.7040   -0.0670    3.4780 c         1 DEI      0.891800
      6 OAB         4.8600    0.3320    3.8100 o         1 DEI     -0.817300
      7 OAC         2.8370   -0.5290    4.2610 o         1 DEI     -0.817300
      8 OAD         4.3960    0.5650    1.2120 oh        1 DEI     -0.534100
      9 HAA        -0.3540   -0.1060   -1.1220 h1        1 DEI      0.045033
     10 HAAA       -0.4610   -0.7040    0.5890 h1        1 DEI      0.045033
     11 HAAB       -0.1620    1.0420    0.2670 h1        1 DEI      0.045033
     12 HAE         1.4700   -0.7290    2.1450 h4        1 DEI      0.153000
     13 HOAD        5.1380    0.7610    1.8180 ho        1 DEI      0.443000
@<TRIPOS>BOND
     1    1    2 1   
     2    1    9 1   
     3    1   10 1   
     4    1   11 1   
     5    2    3 1   
     6    3    4 2   
     7    3   12 1   
     8    4    5 1   
     9    4    8 1   
    10    5    6 1   
    11    5    7 1   
    12    8   13 1   
@<TRIPOS>SUBSTRUCTURE
     1 DEI         1 TEMP              0 ****  ****    0 ROOT
