@<TRIPOS>MOLECULE
DEJ
   76    78     1     0     0
SMALL
bcc


@<TRIPOS>ATOM
      1 C01          0.0000     0.0000     0.0000 c3         1 DEJ      -0.013600
      2 C02          1.5300     0.0000     0.0000 c3         1 DEJ       0.114500
      3 C03          2.0400     0.0000     1.4430 c3         1 DEJ      -0.013600
      4 C05          3.3640    -0.9770    -1.2420 c3         1 DEJ       0.071500
      5 C06          4.0850    -2.3200    -1.3850 c3         1 DEJ       0.086700
      6 C08          5.2060    -4.5970    -0.1140 c3         1 DEJ       0.043700
      7 C09          5.5100    -5.3360     1.1910 c3         1 DEJ       0.070700
      8 C10          6.3350    -6.5880     0.8880 c3         1 DEJ       0.029800
      9 C11          6.7380    -7.2490     2.1800 cc         1 DEJ      -0.156400
     10 C12          7.8960    -7.0780     2.8380 cd         1 DEJ      -0.267100
     11 C14          6.7220    -8.5380     4.0790 ca         1 DEJ      -0.228200
     12 C15          5.9380    -8.1960     2.9620 ca         1 DEJ      -0.090800
     13 C16          4.6710    -8.7580     2.8030 ca         1 DEJ      -0.080000
     14 C17          4.1970    -9.6380     3.7340 ca         1 DEJ      -0.127000
     15 C18          4.9670    -9.9780     4.8380 ca         1 DEJ      -0.084000
     16 C19          6.2200    -9.4360     5.0150 ca         1 DEJ      -0.103000
     17 C24          1.3520    -7.7710     1.0390 c3         1 DEJ       0.195800
     18 C25          2.0790    -9.0820     0.7310 c3         1 DEJ      -0.040100
     19 C26          0.9490    -7.0910    -0.2700 c3         1 DEJ      -0.040100
     20 C27          0.1000    -8.0650     1.8690 c3         1 DEJ      -0.040100
     21 C28          3.2520    -0.3200    -2.5930 c          1 DEJ       0.561100
     22 C32          5.4900     1.6830    -4.7500 ca         1 DEJ      -0.247600
     23 C33          6.4910     1.0020    -5.4250 ca         1 DEJ      -0.052000
     24 C34          7.6700     1.6740    -5.7110 ca         1 DEJ      -0.223300
     25 C35          7.8060     2.9910    -5.3170 ca         1 DEJ       0.412200
     26 C37          5.6960     3.0020    -4.3930 ca         1 DEJ       0.421200
     27 N04          2.0200    -1.1990    -0.6920 n7         1 DEJ      -0.561200
     28 N13          7.9060    -7.8410     3.9730 na         1 DEJ       0.355600
     29 N20          4.2520    -5.7250     1.8370 ns         1 DEJ      -0.150900
     30 N36          6.8320     3.6080    -4.6750 nb         1 DEJ      -0.581000
     31 O22          3.6530    -6.9480     0.0820 o          1 DEJ      -0.680000
     32 O23          2.2340    -6.8940     1.7890 os         1 DEJ      -0.413900
     33 O29          2.2190    -0.4020    -3.2240 o          1 DEJ      -0.607100
     34 S07          4.3550    -3.0380     0.2580 ss         1 DEJ      -0.428200
     35 H1          -0.3610    -0.0630    -1.0190 hc         1 DEJ       0.009200
     36 H2          -0.3610     0.9140     0.4550 hc         1 DEJ       0.009200
     37 H3          -0.3610    -0.8520     0.5640 hc         1 DEJ       0.009200
     38 H4           1.8910     0.8850    -0.5110 h1         1 DEJ       0.028700
     39 H5           1.5550     0.7950     1.9970 hc         1 DEJ       0.009200
     40 H6           3.1110     0.1580     1.4470 hc         1 DEJ       0.009200
     41 H7           1.8130    -0.9530     1.9060 hc         1 DEJ       0.009200
     42 H8           3.9260    -0.3350    -0.5740 h1         1 DEJ       0.029700
     43 H9           5.0390    -2.1670    -1.8740 h1         1 DEJ       0.047700
     44 H10          3.4780    -2.9930    -1.9780 h1         1 DEJ       0.047700
     45 H11          6.1330    -4.3880    -0.6340 h1         1 DEJ       0.065700
     46 H12          4.5720    -5.2140    -0.7390 h1         1 DEJ       0.065700
     47 H13          6.0690    -4.6860     1.8530 h1         1 DEJ       0.043700
     48 H14          7.2220    -6.3090     0.3320 hc         1 DEJ       0.044700
     49 H15          5.7420    -7.2770     0.2990 hc         1 DEJ       0.044700
     50 H16          8.7040    -6.4310     2.5170 h4         1 DEJ       0.139000
     51 H17          4.0650    -8.4970     1.9440 ha         1 DEJ       0.132000
     52 H18          3.2130   -10.0740     3.6090 ha         1 DEJ       0.104000
     53 H19          4.5770   -10.6780     5.5680 ha         1 DEJ       0.100000
     54 H20          6.8120    -9.7080     5.8810 ha         1 DEJ       0.099000
     55 H21          2.3540    -9.5690     1.6590 hc         1 DEJ       0.022478
     56 H22          2.9710    -8.8730     0.1540 hc         1 DEJ       0.022478
     57 H23          1.4250    -9.7320     0.1620 hc         1 DEJ       0.022478
     58 H24          0.8230    -6.0290    -0.1020 hc         1 DEJ       0.022478
     59 H25          0.0160    -7.5140    -0.6240 hc         1 DEJ       0.022478
     60 H26          1.7220    -7.2510    -1.0130 hc         1 DEJ       0.022478
     61 H27         -0.5030    -8.8080     1.3620 hc         1 DEJ       0.022478
     62 H28          0.3920    -8.4390     2.8430 hc         1 DEJ       0.022478
     63 H29         -0.4750    -7.1550     1.9900 hc         1 DEJ       0.022478
     64 H30          3.9760     0.2440    -5.1660 h1         1 DEJ       0.031200
     65 H31          3.3910     1.7260    -4.3970 h1         1 DEJ       0.031200
     66 H32          6.3560    -0.0310    -5.7220 ha         1 DEJ       0.113000
     67 H33          8.4740     1.1730    -6.2380 ha         1 DEJ       0.116000
     68 H34          8.7250     3.5230    -5.5340 h4         1 DEJ      -0.018900
     69 H35          4.9190     3.5410    -3.8640 h4         1 DEJ      -0.014900
     70 H36          2.0440    -1.9680    -0.0510 hn         1 DEJ       0.283800
     71 H38          8.6600    -7.8850     4.6300 hn         1 DEJ       0.113700
     72 H39          4.0110    -5.3430     2.7300 hn         1 DEJ       0.183500
     73 H40          5.1460     0.4390    -2.5760 hn         1 DEJ       0.176500
     74 N30          4.2990     0.3570    -3.1030 ns         1 DEJ      -0.210900
     75 C21          3.3890    -6.5370     1.1960 c          1 DEJ       0.696100
     76 C31          4.1900     0.9960    -4.4160 c3         1 DEJ       0.121300
@<TRIPOS>BOND
     1     1     2 1   
     2     1    35 1   
     3     1    36 1   
     4     1    37 1   
     5     2     3 1   
     6     2    27 1   
     7     2    38 1   
     8     3    39 1   
     9     3    40 1   
    10     3    41 1   
    11     4     5 1   
    12     4    21 1   
    13     4    27 1   
    14     4    42 1   
    15     5    34 1   
    16     5    43 1   
    17     5    44 1   
    18     6     7 1   
    19     6    34 1   
    20     6    45 1   
    21     6    46 1   
    22     7     8 1   
    23     7    29 1   
    24     7    47 1   
    25     8     9 1   
    26     8    48 1   
    27     8    49 1   
    28     9    10 2   
    29     9    12 1   
    30    10    28 1   
    31    10    50 1   
    32    11    12 ar  
    33    11    16 ar  
    34    11    28 1   
    35    12    13 ar  
    36    13    14 ar  
    37    13    51 1   
    38    14    15 ar  
    39    14    52 1   
    40    15    16 ar  
    41    15    53 1   
    42    16    54 1   
    43    17    18 1   
    44    17    19 1   
    45    17    20 1   
    46    17    32 1   
    47    18    55 1   
    48    18    56 1   
    49    18    57 1   
    50    19    58 1   
    51    19    59 1   
    52    19    60 1   
    53    20    61 1   
    54    20    62 1   
    55    20    63 1   
    56    21    33 2   
    57    21    74 1   
    58    22    23 ar  
    59    22    26 ar  
    60    22    76 1   
    61    23    24 ar  
    62    23    66 1   
    63    24    25 ar  
    64    24    67 1   
    65    25    30 ar  
    66    25    68 1   
    67    26    30 ar  
    68    26    69 1   
    69    27    70 1   
    70    28    71 1   
    71    29    72 1   
    72    29    75 1   
    73    31    75 2   
    74    32    75 1   
    75    64    76 1   
    76    65    76 1   
    77    73    74 1   
    78    74    76 1   
@<TRIPOS>SUBSTRUCTURE
     1 DEJ         1 TEMP              0 ****  ****    0 ROOT
