@<TRIPOS>MOLECULE
molecule
   76    78     1     0     0
SMALL
bcc


@<TRIPOS>ATOM
      1 C01          0.0000     0.0000     0.0000 c3         1 DEJ      -0.105600
      2 C02          1.5300     0.0000     0.0000 c3         1 DEJ       0.160500
      3 C03          2.0400     0.0000     1.4430 c3         1 DEJ      -0.105600
      4 C05          3.3640    -0.9770    -1.2420 c3         1 DEJ       0.113500
      5 C06          4.0850    -2.3200    -1.3850 c3         1 DEJ       0.017700
      6 C08          5.2060    -4.5970    -0.1140 c3         1 DEJ      -0.006300
      7 C09          5.5100    -5.3360     1.1910 c3         1 DEJ       0.163700
      8 C10          6.3350    -6.5880     0.8880 c3         1 DEJ      -0.025200
      9 C11          6.7380    -7.2490     2.1800 cc         1 DEJ      -0.154400
     10 C12          7.8960    -7.0780     2.8380 cd         1 DEJ      -0.102100
     11 C14          6.7220    -8.5380     4.0790 ca         1 DEJ      -0.040200
     12 C15          5.9380    -8.1960     2.9620 ca         1 DEJ      -0.093800
     13 C16          4.6710    -8.7580     2.8030 ca         1 DEJ      -0.083000
     14 C17          4.1970    -9.6380     3.7340 ca         1 DEJ      -0.157000
     15 C18          4.9670    -9.9780     4.8380 ca         1 DEJ      -0.107000
     16 C19          6.2200    -9.4360     5.0150 ca         1 DEJ      -0.146000
     17 C24          1.3520    -7.7710     1.0390 c3         1 DEJ       0.176800
     18 C25          2.0790    -9.0820     0.7310 c3         1 DEJ      -0.110433
     19 C26          0.9490    -7.0910    -0.2700 c3         1 DEJ      -0.110433
     20 C27          0.1000    -8.0650     1.8690 c3         1 DEJ      -0.110433
     21 C28          3.2520    -0.3200    -2.5930 c          1 DEJ       0.654100
     22 C32          5.4900     1.6830    -4.7500 ca         1 DEJ      -0.244600
     23 C33          6.4910     1.0020    -5.4250 ca         1 DEJ      -0.078000
     24 C34          7.6700     1.6740    -5.7110 ca         1 DEJ      -0.257300
     25 C35          7.8060     2.9910    -5.3170 ca         1 DEJ       0.425200
     26 C37          5.6960     3.0020    -4.3930 ca         1 DEJ       0.434200
     27 N04          2.0200    -1.1990    -0.6920 n7         1 DEJ      -0.791200
     28 N13          7.9060    -7.8410     3.9730 na         1 DEJ      -0.183400
     29 N20          4.2520    -5.7250     1.8370 ns         1 DEJ      -0.556900
     30 N36          6.8320     3.6080    -4.6750 nb         1 DEJ      -0.689000
     31 O22          3.6530    -6.9480     0.0820 o          1 DEJ      -0.637000
     32 O23          2.2340    -6.8940     1.7890 os         1 DEJ      -0.432900
     33 O29          2.2190    -0.4020    -3.2240 o          1 DEJ      -0.569100
     34 S07          4.3550    -3.0380     0.2580 ss         1 DEJ      -0.380200
     35 H1          -0.3610    -0.0630    -1.0190 hc         1 DEJ       0.039867
     36 H2          -0.3610     0.9140     0.4550 hc         1 DEJ       0.039867
     37 H3          -0.3610    -0.8520     0.5640 hc         1 DEJ       0.039867
     38 H4           1.8910     0.8850    -0.5110 h1         1 DEJ       0.056700
     39 H5           1.5550     0.7950     1.9970 hc         1 DEJ       0.039867
     40 H6           3.1110     0.1580     1.4470 hc         1 DEJ       0.039867
     41 H7           1.8130    -0.9530     1.9060 hc         1 DEJ       0.039867
     42 H8           3.9260    -0.3350    -0.5740 h1         1 DEJ       0.043700
     43 H9           5.0390    -2.1670    -1.8740 h1         1 DEJ       0.073700
     44 H10          3.4780    -2.9930    -1.9780 h1         1 DEJ       0.073700
     45 H11          6.1330    -4.3880    -0.6340 h1         1 DEJ       0.083200
     46 H12          4.5720    -5.2140    -0.7390 h1         1 DEJ       0.083200
     47 H13          6.0690    -4.6860     1.8530 h1         1 DEJ       0.071700
     48 H14          7.2220    -6.3090     0.3320 hc         1 DEJ       0.071700
     49 H15          5.7420    -7.2770     0.2990 hc         1 DEJ       0.071700
     50 H16          8.7040    -6.4310     2.5170 h4         1 DEJ       0.163000
     51 H17          4.0650    -8.4970     1.9440 ha         1 DEJ       0.144000
     52 H18          3.2130   -10.0740     3.6090 ha         1 DEJ       0.128000
     53 H19          4.5770   -10.6780     5.5680 ha         1 DEJ       0.129000
     54 H20          6.8120    -9.7080     5.8810 ha         1 DEJ       0.124000
     55 H21          2.3540    -9.5690     1.6590 hc         1 DEJ       0.051256
     56 H22          2.9710    -8.8730     0.1540 hc         1 DEJ       0.051256
     57 H23          1.4250    -9.7320     0.1620 hc         1 DEJ       0.051256
     58 H24          0.8230    -6.0290    -0.1020 hc         1 DEJ       0.051256
     59 H25          0.0160    -7.5140    -0.6240 hc         1 DEJ       0.051256
     60 H26          1.7220    -7.2510    -1.0130 hc         1 DEJ       0.051256
     61 H27         -0.5030    -8.8080     1.3620 hc         1 DEJ       0.051256
     62 H28          0.3920    -8.4390     2.8430 hc         1 DEJ       0.051256
     63 H29         -0.4750    -7.1550     1.9900 hc         1 DEJ       0.051256
     64 H30          3.9760     0.2440    -5.1660 h1         1 DEJ       0.061200
     65 H31          3.3910     1.7260    -4.3970 h1         1 DEJ       0.061200
     66 H32          6.3560    -0.0310    -5.7220 ha         1 DEJ       0.143000
     67 H33          8.4740     1.1730    -6.2380 ha         1 DEJ       0.141000
     68 H34          8.7250     3.5230    -5.5340 h4         1 DEJ       0.025100
     69 H35          4.9190     3.5410    -3.8640 h4         1 DEJ       0.028100
     70 H36          2.0440    -1.9680    -0.0510 hn         1 DEJ       0.378800
     71 H38          8.6600    -7.8850     4.6300 hn         1 DEJ       0.295700
     72 H39          4.0110    -5.3430     2.7300 hn         1 DEJ       0.332500
     73 H40          5.1460     0.4390    -2.5760 hn         1 DEJ       0.314500
     74 N30          4.2990     0.3570    -3.1030 ns         1 DEJ      -0.594900
     75 C21          3.3890    -6.5370     1.1960 c          1 DEJ       0.762100
     76 C31          4.1900     0.9960    -4.4160 c3         1 DEJ       0.166300
@<TRIPOS>BOND
     1    16    15 ar
     2    16    11 ar
     3    28    11 1
     4    28    10 1
     5    15    14 ar
     6    20    17 1
     7    11    12 ar
     8    19    17 1
     9    10     9 2
    10    17    18 1
    11    17    32 1
    12    31    75 2
    13    14    13 ar
    14    12     9 1
    15    12    13 ar
    16     9     8 1
    17    75    32 1
    18    75    29 1
    19     8     7 1
    20    29     7 1
    21    25    24 ar
    22    25    30 ar
    23     7     6 1
    24    24    23 ar
    25     3     2 1
    26    30    26 ar
    27     1     2 1
    28    23    22 ar
    29     6    34 1
    30     2    27 1
    31    26    22 ar
    32    34     5 1
    33    22    76 1
    34     4    27 1
    35     4     5 1
    36     4    21 1
    37    74    76 1
    38    74    21 1
    39    21    33 2
    40     1    35 1
    41     1    36 1
    42     1    37 1
    43     2    38 1
    44     3    39 1
    45     3    40 1
    46     3    41 1
    47     4    42 1
    48     5    43 1
    49     5    44 1
    50     6    45 1
    51     6    46 1
    52     7    47 1
    53     8    48 1
    54     8    49 1
    55    10    50 1
    56    13    51 1
    57    14    52 1
    58    15    53 1
    59    16    54 1
    60    18    55 1
    61    18    56 1
    62    18    57 1
    63    19    58 1
    64    19    59 1
    65    19    60 1
    66    20    61 1
    67    20    62 1
    68    20    63 1
    69    76    64 1
    70    76    65 1
    71    23    66 1
    72    24    67 1
    73    25    68 1
    74    26    69 1
    75    27    70 1
    76    28    71 1
    77    29    72 1
    78    74    73 1
@<TRIPOS>SUBSTRUCTURE
     1 DEJ         1 TEMP              0 ****  ****    0 ROOT
