@<TRIPOS>MOLECULE
molecule
   37    36     1     0     0
SMALL
bcc


@<TRIPOS>ATOM
      1 CM           0.0000     0.0000     0.0000 c3         1 DEM       0.330200
      2 C1           1.8430    -1.3670     0.0010 c3         1 DEM       0.124400
      3 C2           3.3700    -1.4390     0.0000 c3         1 DEM      -0.084400
      4 C3           3.8140    -2.9030     0.0020 c3         1 DEM      -0.081400
      5 C4           5.3400    -2.9740     0.0010 c3         1 DEM      -0.080400
      6 C5           5.7840    -4.4370     0.0030 c3         1 DEM      -0.082400
      7 C6           7.3110    -4.5090     0.0020 c3         1 DEM      -0.081400
      8 C7           7.7550    -5.9730     0.0040 c3         1 DEM      -0.082400
      9 C8           9.2840    -6.0440     0.0030 c3         1 DEM      -0.081400
     10 C9           9.7270    -7.5070     0.0050 c3         1 DEM      -0.084400
     11 C10         11.2550    -7.5790     0.0040 c3         1 DEM      -0.092100
     12 O1           1.4280     0.0000     0.0000 os         1 DEM      -0.398600
     13 O5          -0.4760     0.0000     1.3460 oh         1 DEM      -0.629800
     14 HCM1        -0.3610    -0.8840    -0.5110 h2         1 DEM       0.032200
     15 HCM2        -0.3610     0.8850    -0.5110 h2         1 DEM       0.032200
     16 HC11         1.4580    -1.8620    -0.8830 h1         1 DEM       0.031700
     17 HC12         1.4590    -1.8600     0.8860 h1         1 DEM       0.031700
     18 HC21         3.7540    -0.9470    -0.8850 hc         1 DEM       0.053700
     19 HC22         3.7550    -0.9440     0.8840 hc         1 DEM       0.053700
     20 HC31         3.4300    -3.3950     0.8870 hc         1 DEM       0.041200
     21 HC32         3.4290    -3.3970    -0.8810 hc         1 DEM       0.041200
     22 HC41         5.7250    -2.4790     0.8850 hc         1 DEM       0.043200
     23 HC42         5.7240    -2.4810    -0.8840 hc         1 DEM       0.043200
     24 HC51         5.3990    -4.9320    -0.8800 hc         1 DEM       0.041200
     25 HC52         5.4000    -4.9300     0.8880 hc         1 DEM       0.041200
     26 HC61         7.6960    -4.0140     0.8860 hc         1 DEM       0.041200
     27 HC62         7.6950    -4.0170    -0.8830 hc         1 DEM       0.041200
     28 HC71         7.3700    -6.4670    -0.8790 hc         1 DEM       0.040700
     29 HC72         7.3720    -6.4650     0.8900 hc         1 DEM       0.040700
     30 HC81         9.6690    -5.5490     0.8860 hc         1 DEM       0.041200
     31 HC82         9.6670    -5.5520    -0.8830 hc         1 DEM       0.041200
     32 HC91         9.3430    -7.9990     0.8900 hc         1 DEM       0.039700
     33 HC92         9.3420    -8.0020    -0.8790 hc         1 DEM       0.039700
     34 H101        11.6400    -7.0850     0.8880 hc         1 DEM       0.032367
     35 H102        11.5670    -8.6170     0.0050 hc         1 DEM       0.032367
     36 H103        11.6390    -7.0880    -0.8820 hc         1 DEM       0.032367
     37 HO5         -1.2770     0.4950     1.3960 ho         1 DEM       0.412000
@<TRIPOS>BOND
     1     1    12 1
     2     1    13 1
     3     1    14 1
     4     1    15 1
     5     2     3 1
     6     2    12 1
     7     2    16 1
     8     2    17 1
     9     3     4 1
    10     3    18 1
    11     3    19 1
    12     4     5 1
    13     4    20 1
    14     4    21 1
    15     5     6 1
    16     5    22 1
    17     5    23 1
    18     6     7 1
    19     6    24 1
    20     6    25 1
    21     7     8 1
    22     7    26 1
    23     7    27 1
    24     8     9 1
    25     8    28 1
    26     8    29 1
    27     9    10 1
    28     9    30 1
    29     9    31 1
    30    10    11 1
    31    10    32 1
    32    10    33 1
    33    11    34 1
    34    11    35 1
    35    11    36 1
    36    13    37 1
@<TRIPOS>SUBSTRUCTURE
     1 DEM         1 TEMP              0 ****  ****    0 ROOT
