@<TRIPOS>MOLECULE
DEM
   37    36     1     0     0
SMALL
bcc


@<TRIPOS>ATOM
      1 CM         -0.0460    0.0800   -0.0400 c3        1 DEM      0.321200
      2 C1          1.7240   -1.5090   -0.0950 c3        1 DEM      0.130400
      3 C2          3.2420   -1.5440   -0.0800 c3        1 DEM     -0.083400
      4 C3          3.7360   -2.9730   -0.0560 c3        1 DEM     -0.078400
      5 C4          5.2490   -3.0250   -0.0390 c3        1 DEM     -0.078400
      6 C5          5.7480   -4.4540   -0.0160 c3        1 DEM     -0.079400
      7 C6          7.2610   -4.5070   -0.0000 c3        1 DEM     -0.079400
      8 C7          7.7600   -5.9360    0.0220 c3        1 DEM     -0.079400
      9 C8          9.2730   -5.9890    0.0370 c3        1 DEM     -0.079400
     10 C9          9.7740   -7.4180    0.0590 c3        1 DEM     -0.080400
     11 C10        11.2800   -7.4760    0.0730 c3        1 DEM     -0.092100
     12 O1          1.3450   -0.1310   -0.1350 os        1 DEM     -0.461600
     13 O5         -0.3990   -0.1790    1.2940 oh        1 DEM     -0.628800
     14 HCM1       -0.2000    1.1550   -0.3270 h2        1 DEM      0.060200
     15 HCM2       -0.6510   -0.6270   -0.6660 h2        1 DEM      0.060200
     16 HC11        1.2960   -1.9860    0.8260 h1        1 DEM      0.034700
     17 HC12        1.3170   -2.0270   -1.0030 h1        1 DEM      0.034700
     18 HC21        3.6170   -0.9880    0.8180 hc        1 DEM      0.053200
     19 HC22        3.6340   -1.0120   -0.9860 hc        1 DEM      0.053200
     20 HC31        3.3520   -3.5210   -0.9560 hc        1 DEM      0.041200
     21 HC32        3.3320   -3.4980    0.8490 hc        1 DEM      0.041200
     22 HC41        5.6540   -2.5000   -0.9440 hc        1 DEM      0.041700
     23 HC42        5.6340   -2.4770    0.8610 hc        1 DEM      0.041700
     24 HC51        5.3440   -4.9790    0.8890 hc        1 DEM      0.039700
     25 HC52        5.3620   -5.0020   -0.9160 hc        1 DEM      0.039700
     26 HC61        7.6470   -3.9590    0.9000 hc        1 DEM      0.039700
     27 HC62        7.6650   -3.9820   -0.9050 hc        1 DEM      0.039700
     28 HC71        7.3730   -6.4840   -0.8770 hc        1 DEM      0.039700
     29 HC72        7.3570   -6.4610    0.9280 hc        1 DEM      0.039700
     30 HC81        9.6770   -5.4640   -0.8690 hc        1 DEM      0.039700
     31 HC82        9.6600   -5.4410    0.9360 hc        1 DEM      0.039700
     32 HC91        9.3680   -7.9410    0.9650 hc        1 DEM      0.038700
     33 HC92        9.3840   -7.9640   -0.8400 hc        1 DEM      0.038700
     34 H101       11.7010   -6.9800   -0.8350 hc        1 DEM      0.032700
     35 H102       11.6270   -8.5370    0.0890 hc        1 DEM      0.032700
     36 H103       11.6860   -6.9570    0.9750 hc        1 DEM      0.032700
     37 HO5         0.1720    0.3560    1.8600 ho        1 DEM      0.415000
@<TRIPOS>BOND
     1    1   12 1   
     2    1   13 1   
     3    1   14 1   
     4    1   15 1   
     5    2    3 1   
     6    2   12 1   
     7    2   16 1   
     8    2   17 1   
     9    3    4 1   
    10    3   18 1   
    11    3   19 1   
    12    4    5 1   
    13    4   20 1   
    14    4   21 1   
    15    5    6 1   
    16    5   22 1   
    17    5   23 1   
    18    6    7 1   
    19    6   24 1   
    20    6   25 1   
    21    7    8 1   
    22    7   26 1   
    23    7   27 1   
    24    8    9 1   
    25    8   28 1   
    26    8   29 1   
    27    9   10 1   
    28    9   30 1   
    29    9   31 1   
    30   10   11 1   
    31   10   32 1   
    32   10   33 1   
    33   11   34 1   
    34   11   35 1   
    35   11   36 1   
    36   13   37 1   
@<TRIPOS>SUBSTRUCTURE
     1 DEM         1 TEMP              0 ****  ****    0 ROOT
