@<TRIPOS>MOLECULE
DEN
   17    18     1     0     0
SMALL
bcc


@<TRIPOS>ATOM
      1 C1         -0.0330    0.0610   -0.0060 c3        1 DEN     -0.019900
      2 C2          1.4780    0.0350    0.0190 c2        1 DEN     -0.173200
      3 C3          1.9410   -0.0100    1.2940 ce        1 DEN     -0.117200
      4 C4          0.7520   -0.0560    3.6060 ca        1 DEN     -0.107000
      5 C5         -0.5040   -0.0530    4.2260 ca        1 DEN     -0.133000
      6 C6         -1.6750   -0.0120    3.4730 ca        1 DEN     -0.129000
      7 C7         -1.6310    0.0280    2.0720 ca        1 DEN     -0.115000
      8 C8         -0.3970    0.0250    1.4510 ca        1 DEN     -0.094300
      9 C9          0.8050   -0.0170    2.2230 ca        1 DEN     -0.071800
     10 H11        -0.4410   -0.8260   -0.5530 hc        1 DEN      0.074700
     11 H12        -0.4110    0.9910   -0.5000 hc        1 DEN      0.074700
     12 H2          2.0580    0.0520   -0.9020 ha        1 DEN      0.142000
     13 H3          2.9780   -0.0370    1.6300 ha        1 DEN      0.144000
     14 H4          1.6710   -0.0890    4.2070 ha        1 DEN      0.134000
     15 H5         -0.5630   -0.0840    5.3240 ha        1 DEN      0.130000
     16 H6         -2.6510   -0.0100    3.9810 ha        1 DEN      0.130000
     17 H7         -2.5610    0.0600    1.4880 ha        1 DEN      0.132000
@<TRIPOS>BOND
     1    1    2 1   
     2    1    8 1   
     3    1   10 1   
     4    1   11 1   
     5    2    3 2   
     6    2   12 1   
     7    3    9 1   
     8    3   13 1   
     9    4    5 ar  
    10    4    9 ar  
    11    4   14 1   
    12    5    6 ar  
    13    5   15 1   
    14    6    7 ar  
    15    6   16 1   
    16    7    8 ar  
    17    7   17 1   
    18    8    9 ar  
@<TRIPOS>SUBSTRUCTURE
     1 DEN         1 TEMP              0 ****  ****    0 ROOT
