@<TRIPOS>MOLECULE
molecule
   17    18     1     0     0
SMALL
bcc


@<TRIPOS>ATOM
      1 C1           0.0000     0.0000     0.0000 c3         1 DEN      -0.028900
      2 C2           1.5110     0.0000     0.0000 c2         1 DEN      -0.172200
      3 C3           1.9250     0.0000     1.2550 ce         1 DEN      -0.105200
      4 C4           0.7230    -0.0000     3.5840 ca         1 DEN      -0.101000
      5 C5          -0.5030     0.0000     4.2170 ca         1 DEN      -0.133000
      6 C6          -1.6720     0.0000     3.4790 ca         1 DEN      -0.123000
      7 C7          -1.6190     0.0000     2.0950 ca         1 DEN      -0.111000
      8 C8          -0.4020     0.0000     1.4550 ca         1 DEN      -0.094300
      9 C9           0.7850     0.0000     2.1890 ca         1 DEN      -0.088800
     10 H11         -0.3740     0.8910    -0.4910 hc         1 DEN       0.071200
     11 H12         -0.3740    -0.8910    -0.4910 hc         1 DEN       0.071200
     12 H2           2.0520    -0.5650    -0.7490 ha         1 DEN       0.153000
     13 H3           2.8440     0.5070     1.5220 ha         1 DEN       0.144000
     14 H4           1.6350    -0.0000     4.1680 ha         1 DEN       0.130000
     15 H5          -0.5500     0.0000     5.3000 ha         1 DEN       0.130000
     16 H6          -2.6300     0.0000     3.9840 ha         1 DEN       0.130000
     17 H7          -2.5350     0.0000     1.5170 ha         1 DEN       0.128000
@<TRIPOS>BOND
     1     1     2 1
     2     1     8 1
     3     1    10 1
     4     1    11 1
     5     2     3 2
     6     2    12 1
     7     3     9 1
     8     3    13 1
     9     4     5 ar
    10     4     9 ar
    11     4    14 1
    12     5     6 ar
    13     5    15 1
    14     6     7 ar
    15     6    16 1
    16     7     8 ar
    17     7    17 1
    18     8     9 ar
@<TRIPOS>SUBSTRUCTURE
     1 DEN         1 TEMP              0 ****  ****    0 ROOT
