@<TRIPOS>MOLECULE
molecule
   59    62     1     0     0
SMALL
bcc


@<TRIPOS>ATOM
      1 N1           0.0000     0.0000     0.0000 n          1 DEO      -0.474400
      2 C1           1.3450     0.0000     0.0000 c          1 DEO       0.712100
      3 C2           1.8160     0.0000     1.4010 ca         1 DEO      -0.149600
      4 C3           0.6540    -0.0080     2.1990 ca         1 DEO      -0.149600
      5 C4           0.7660    -0.0140     3.5790 ca         1 DEO      -0.071500
      6 C5           2.0210    -0.0130     4.1670 ca         1 DEO      -0.128500
      7 C6           3.1610    -0.0050     3.3860 ca         1 DEO      -0.128500
      8 C7           3.0640     0.0010     2.0030 ca         1 DEO      -0.071500
      9 C8          -0.4840    -0.0070     1.2540 c          1 DEO       0.712100
     10 O1          -1.6590    -0.0130     1.5610 o          1 DEO      -0.571500
     11 O2           2.0550     0.0010    -0.9860 o          1 DEO      -0.571500
     12 C9          -0.8290     0.0020    -1.2080 c3         1 DEO       0.088000
     13 C10         -1.1230     1.4450    -1.6230 c3         1 DEO      -0.072400
     14 C11         -1.9880     1.4470    -2.8840 c3         1 DEO      -0.165700
     15 C12         -2.3860     2.8840    -3.2270 c3         1 DEO      -0.147400
     16 C13         -3.3370     2.8770    -4.3950 c          1 DEO       0.579700
     17 O3          -3.6650     1.8250    -4.9040 o          1 DEO      -0.492100
     18 C14         -3.8690     4.1430    -4.9200 ca         1 DEO      -0.140600
     19 C15         -4.7530     4.1370    -6.0050 ca         1 DEO      -0.086500
     20 C16         -5.2450     5.3150    -6.4900 ca         1 DEO      -0.137000
     21 C17         -4.8690     6.5240    -5.9030 cp         1 DEO      -0.037000
     22 C18         -3.9830     6.5330    -4.8240 ca         1 DEO      -0.137000
     23 C19         -3.4920     5.3570    -4.3320 ca         1 DEO      -0.086500
     24 C20         -5.4040     7.8010    -6.4310 cp         1 DEO      -0.060000
     25 C21         -5.7720     8.8210    -5.5510 ca         1 DEO      -0.083000
     26 C22         -6.2700    10.0080    -6.0450 ca         1 DEO      -0.193500
     27 C23         -6.4060    10.1880    -7.4160 ca         1 DEO       0.111100
     28 C24         -6.0460     9.1730    -8.2930 ca         1 DEO      -0.193500
     29 C25         -5.5430     7.9860    -7.8060 ca         1 DEO      -0.083000
     30 O4          -6.8970    11.3590    -7.8990 os         1 DEO      -0.304900
     31 C26         -6.9170    11.2420    -9.3230 c3         1 DEO       0.114400
     32 C27         -7.4640    12.5340    -9.9340 c3         1 DEO      -0.097100
     33 C28         -1.2080     0.8550    -4.0290 c          1 DEO       0.904600
     34 O5          -0.7520    -0.4050    -3.9510 o          1 DEO      -0.842300
     35 O6          -0.9930     1.5140    -5.0190 o          1 DEO      -0.842300
     36 H4          -0.1240    -0.0200     4.1970 ha         1 DEO       0.144000
     37 H5           2.1090    -0.0170     5.2470 ha         1 DEO       0.128500
     38 H6           4.1360    -0.0040     3.8570 ha         1 DEO       0.128500
     39 H7           3.9610     0.0070     1.3950 ha         1 DEO       0.144000
     40 H91         -1.7600    -0.5130    -1.0080 h1         1 DEO       0.110200
     41 H92         -0.3010    -0.5030    -2.0080 h1         1 DEO       0.110200
     42 H101        -1.6500     1.9500    -0.8230 hc         1 DEO       0.028700
     43 H102        -0.1920     1.9610    -1.8230 hc         1 DEO       0.028700
     44 H11         -2.8800     0.8570    -2.7110 hc         1 DEO       0.057700
     45 H121        -2.8690     3.3400    -2.3710 hc         1 DEO       0.050200
     46 H122        -1.5010     3.4520    -3.4860 hc         1 DEO       0.050200
     47 H15         -5.0450     3.1990    -6.4610 ha         1 DEO       0.148000
     48 H16         -5.9310     5.3110    -7.3290 ha         1 DEO       0.124500
     49 H18         -3.6920     7.4730    -4.3700 ha         1 DEO       0.124500
     50 H19         -2.8040     5.3630    -3.4950 ha         1 DEO       0.148000
     51 H21         -5.6650     8.6800    -4.4820 ha         1 DEO       0.139500
     52 H22         -6.5540    10.8010    -5.3640 ha         1 DEO       0.137500
     53 H24         -6.1540     9.3180    -9.3610 ha         1 DEO       0.137500
     54 H25         -5.2630     7.1950    -8.4910 ha         1 DEO       0.139500
     55 H261        -7.5520    10.4110    -9.6090 h1         1 DEO       0.041200
     56 H262        -5.9110    11.0690    -9.6860 h1         1 DEO       0.041200
     57 H271        -8.4700    12.7070    -9.5710 hc         1 DEO       0.043700
     58 H272        -6.8290    13.3650    -9.6490 hc         1 DEO       0.043700
     59 H273        -7.4790    12.4460   -11.0130 hc         1 DEO       0.043700
@<TRIPOS>BOND
     1     1     2 1
     2     1     9 1
     3     1    12 1
     4     2     3 1
     5     2    11 2
     6     3     4 ar
     7     3     8 ar
     8     4     5 ar
     9     4     9 1
    10     5     6 ar
    11     5    36 1
    12     6     7 ar
    13     6    37 1
    14     7     8 ar
    15     7    38 1
    16     8    39 1
    17     9    10 2
    18    12    13 1
    19    12    40 1
    20    12    41 1
    21    13    14 1
    22    13    42 1
    23    13    43 1
    24    14    15 1
    25    14    33 1
    26    14    44 1
    27    15    16 1
    28    15    45 1
    29    15    46 1
    30    16    17 2
    31    16    18 1
    32    18    19 ar
    33    18    23 ar
    34    19    20 ar
    35    19    47 1
    36    20    21 ar
    37    20    48 1
    38    21    22 ar
    39    21    24 1
    40    22    23 ar
    41    22    49 1
    42    23    50 1
    43    24    25 ar
    44    24    29 ar
    45    25    26 ar
    46    25    51 1
    47    26    27 ar
    48    26    52 1
    49    27    28 ar
    50    27    30 1
    51    28    29 ar
    52    28    53 1
    53    29    54 1
    54    30    31 1
    55    31    32 1
    56    31    55 1
    57    31    56 1
    58    32    57 1
    59    32    58 1
    60    32    59 1
    61    33    34 1
    62    33    35 1
@<TRIPOS>SUBSTRUCTURE
     1 DEO         1 TEMP              0 ****  ****    0 ROOT
