@<TRIPOS>MOLECULE
molecule
   19    18     1     0     0
SMALL
bcc


@<TRIPOS>ATOM
      1 C1           0.0000     0.0000     0.0000 c3         1 DEP       0.169900
      2 C2           1.5140     0.0000     0.0000 c3         1 DEP      -0.093600
      3 C3          -1.3830     1.4230     3.6610 c3         1 DEP       0.169900
      4 C4          -1.6220     1.5600     5.1500 c3         1 DEP      -0.093600
      5 O1          -0.4610     0.0000     1.3400 os         1 DEP      -0.535700
      6 O2          -2.1580     0.3460     3.1660 os         1 DEP      -0.535700
      7 O3          -2.6800    -1.3460     1.2770 o          1 DEP      -0.737300
      8 P           -2.0710    -0.0010     1.5780 p5         1 DEP       1.318500
      9 H11         -0.3630     0.8850    -0.5090 h1         1 DEP       0.032200
     10 H12         -0.3630    -0.8850    -0.5090 h1         1 DEP       0.032200
     11 H21          1.8750    -0.1710    -1.0070 hc         1 DEP       0.049200
     12 H22          1.8750     0.9580     0.3550 hc         1 DEP       0.049200
     13 H23          1.8750    -0.7860     0.6520 hc         1 DEP       0.049200
     14 H31         -1.6580     2.3460     3.1630 h1         1 DEP       0.032200
     15 H32         -0.3360     1.2120     3.4790 h1         1 DEP       0.032200
     16 H41         -2.6820     1.6850     5.3350 hc         1 DEP       0.049200
     17 H42         -1.0860     2.4230     5.5240 hc         1 DEP       0.049200
     18 H43         -1.2700     0.6690     5.6550 hc         1 DEP       0.049200
     19 HP1         -2.6960     0.9940     0.8080 hp         1 DEP      -0.087400
@<TRIPOS>BOND
     1     1     2 1
     2     1     5 1
     3     1     9 1
     4     1    10 1
     5     2    11 1
     6     2    12 1
     7     2    13 1
     8     3     4 1
     9     3     6 1
    10     3    14 1
    11     3    15 1
    12     4    16 1
    13     4    17 1
    14     4    18 1
    15     5     8 1
    16     6     8 1
    17     7     8 2
    18    19     8 1
@<TRIPOS>SUBSTRUCTURE
     1 DEP         1 TEMP              0 ****  ****    0 ROOT
