@<TRIPOS>MOLECULE
DEP
   19    18     1     0     0
SMALL
bcc


@<TRIPOS>ATOM
      1 C1         -0.2120    0.1300   -0.1840 c3        1 DEP      0.171400
      2 C2          1.2560    0.1190    0.1820 c3        1 DEP     -0.120600
      3 C3         -0.8840    1.1720    3.6870 c3        1 DEP      0.171400
      4 C4         -1.6750    1.4780    4.9410 c3        1 DEP     -0.120600
      5 O1         -0.9540    0.8490    0.7820 os        1 DEP     -0.586200
      6 O2         -1.3480   -0.0190    3.0890 os        1 DEP     -0.586200
      7 O3         -2.4300   -1.2260    1.1000 o         1 DEP     -0.795300
      8 P          -2.0540    0.0650    1.6500 p5        1 DEP      1.502500
      9 H11        -0.3530    0.6690   -1.1630 h1        1 DEP      0.052200
     10 H12        -0.6220   -0.9160   -0.2690 h1        1 DEP      0.052200
     11 H21         1.8380   -0.3380   -0.6540 hc        1 DEP      0.047533
     12 H22         1.6200    1.1600    0.3530 hc        1 DEP      0.047533
     13 H23         1.4370   -0.4740    1.1100 hc        1 DEP      0.047533
     14 H31         0.1970    1.0010    3.9540 h1        1 DEP      0.052200
     15 H32        -0.9510    2.0160    2.9460 h1        1 DEP      0.052200
     16 H41        -2.7240    1.7710    4.6990 hc        1 DEP      0.047533
     17 H42        -1.1860    2.3170    5.4890 hc        1 DEP      0.047533
     18 H43        -1.7060    0.5780    5.6020 hc        1 DEP      0.047533
     19 HP1        -2.9530    0.9700    1.8000 hp        1 DEP     -0.131400
@<TRIPOS>BOND
     1    1    2 1   
     2    1    5 1   
     3    1    9 1   
     4    1   10 1   
     5    2   11 1   
     6    2   12 1   
     7    2   13 1   
     8    3    4 1   
     9    3    6 1   
    10    3   14 1   
    11    3   15 1   
    12    4   16 1   
    13    4   17 1   
    14    4   18 1   
    15    5    8 1   
    16    6    8 1   
    17    7    8 2   
    18    8   19 1   
@<TRIPOS>SUBSTRUCTURE
     1 DEP         1 TEMP              0 ****  ****    0 ROOT
