@<TRIPOS>MOLECULE
DEQ
   74    77     1     0     0
SMALL
bcc


@<TRIPOS>ATOM
      1 C1          0.1720   -0.5910    0.1040 ca        1 DEQ     -0.169000
      2 C2          1.5450   -0.7200    0.0840 ca        1 DEQ     -0.043000
      3 C3          2.3000   -0.5330    1.2550 ca        1 DEQ     -0.121000
      4 C4          1.6620   -0.2290    2.4390 ca        1 DEQ     -0.074000
      5 C5         -0.5110   -0.2550    1.3090 ca        1 DEQ      0.075700
      6 C6          0.2550   -0.0880    2.5020 ca        1 DEQ     -0.136000
      7 C7         -0.4320    0.2090    3.7480 ca        1 DEQ      0.335600
      8 C8         -1.8520    0.2730    3.7060 ca        1 DEQ     -0.311000
      9 C9         -2.5550    0.1210    2.5140 ca        1 DEQ      0.128400
     10 N1         -1.9050   -0.0930    1.3240 na        1 DEQ     -0.061100
     11 C10       -10.5860   -6.7810   -9.9840 ca        1 DEQ     -0.136000
     12 C11        -9.8320   -6.6140   -8.7830 ca        1 DEQ      0.075700
     13 N2         -8.4400   -6.7950   -8.7810 na        1 DEQ     -0.061100
     14 C12        -7.7790   -7.0280   -9.9620 ca        1 DEQ      0.128400
     15 C13        -8.4710   -7.1810  -11.1600 ca        1 DEQ     -0.311000
     16 C14        -9.8890   -7.0980  -11.2190 ca        1 DEQ      0.335600
     17 C15       -11.9920   -6.6200   -9.9380 ca        1 DEQ     -0.074000
     18 C16       -12.6390   -6.2980   -8.7640 ca        1 DEQ     -0.121000
     19 C17       -11.8950   -6.1110   -7.5860 ca        1 DEQ     -0.043000
     20 C18       -10.5240   -6.2600   -7.5890 ca        1 DEQ     -0.169000
     21 C19        -7.6990   -6.7450   -7.5210 c3        1 DEQ      0.003300
     22 C20        -7.2990   -5.3400   -7.0710 c3        1 DEQ     -0.102400
     23 C21        -6.5630   -5.4240   -5.7490 c3        1 DEQ     -0.081400
     24 C22        -6.1350   -4.0490   -5.2790 c3        1 DEQ     -0.078400
     25 C23        -5.3910   -4.1310   -3.9620 c3        1 DEQ     -0.079400
     26 C24        -4.9610   -2.7570   -3.4900 c3        1 DEQ     -0.079400
     27 C25        -4.2140   -2.8400   -2.1750 c3        1 DEQ     -0.078400
     28 C26        -3.7920   -1.4640   -1.7020 c3        1 DEQ     -0.081400
     29 C27        -3.0460   -1.5490   -0.3860 c3        1 DEQ     -0.102400
     30 C28        -2.6590   -0.1420    0.0720 c3        1 DEQ      0.003300
     31 C30        -4.0480    0.2200    2.5680 c3        1 DEQ     -0.092800
     32 C29        -6.2870   -7.1470   -9.9970 c3        1 DEQ     -0.092800
     33 N4          0.2220    0.4140    4.9070 nh        1 DEQ     -0.795200
     34 N3        -10.5330   -7.3050  -12.3840 nh        1 DEQ     -0.795200
     35 H11        -0.3860   -0.7660   -0.8300 ha        1 DEQ      0.160000
     36 H21         2.0590   -0.9760   -0.8590 ha        1 DEQ      0.168000
     37 H31         3.3980   -0.6350    1.2210 ha        1 DEQ      0.172000
     38 H41         2.2810   -0.1010    3.3410 ha        1 DEQ      0.149000
     39 H81        -2.4240    0.4540    4.6310 ha        1 DEQ      0.182000
     40 H131       -7.8910   -7.3780  -12.0770 ha        1 DEQ      0.182000
     41 H151      -12.6020   -6.7480  -10.8460 ha        1 DEQ      0.149000
     42 H161      -13.7350   -6.1800   -8.7430 ha        1 DEQ      0.172000
     43 H171      -12.4160   -5.8400   -6.6510 ha        1 DEQ      0.168000
     44 H181       -9.9730   -6.0830   -6.6510 ha        1 DEQ      0.160000
     45 H191       -6.7700   -7.3770   -7.6270 h1        1 DEQ      0.084700
     46 H192       -8.3280   -7.2380   -6.7230 h1        1 DEQ      0.084700
     47 H201       -8.2080   -4.6920   -6.9590 hc        1 DEQ      0.061200
     48 H202       -6.6400   -4.8610   -7.8410 hc        1 DEQ      0.061200
     49 H211       -7.2250   -5.8960   -4.9760 hc        1 DEQ      0.049700
     50 H212       -5.6590   -6.0810   -5.8590 hc        1 DEQ      0.049700
     51 H221       -7.0370   -3.3930   -5.1620 hc        1 DEQ      0.047700
     52 H222       -5.4770   -3.5740   -6.0540 hc        1 DEQ      0.047700
     53 H231       -4.4880   -4.7870   -4.0800 hc        1 DEQ      0.045700
     54 H232       -6.0480   -4.6070   -3.1870 hc        1 DEQ      0.045700
     55 H241       -4.3060   -2.2810   -4.2660 hc        1 DEQ      0.045700
     56 H242       -5.8640   -2.1020   -3.3700 hc        1 DEQ      0.045700
     57 H251       -3.3080   -3.4910   -2.2970 hc        1 DEQ      0.047700
     58 H252       -4.8670   -3.3210   -1.4010 hc        1 DEQ      0.047700
     59 H261       -3.1380   -0.9840   -2.4780 hc        1 DEQ      0.049700
     60 H262       -4.6990   -0.8140   -1.5830 hc        1 DEQ      0.049700
     61 H271       -3.6940   -2.0420    0.3860 hc        1 DEQ      0.061200
     62 H272       -2.1300   -2.1850   -0.5090 hc        1 DEQ      0.061200
     63 H281       -3.5950    0.4760    0.1940 h1        1 DEQ      0.084700
     64 H282       -2.0460    0.3650   -0.7290 h1        1 DEQ      0.084700
     65 H301       -4.5330   -0.6110    1.9950 hc        1 DEQ      0.088033
     66 H302       -4.3840    1.2010    2.1430 hc        1 DEQ      0.088033
     67 H303       -4.3970    0.1610    3.6300 hc        1 DEQ      0.088033
     68 H291       -5.9260   -7.1030  -11.0560 hc        1 DEQ      0.088033
     69 H292       -5.7970   -6.3190   -9.4270 hc        1 DEQ      0.088033
     70 H293       -5.9690   -8.1300   -9.5610 hc        1 DEQ      0.088033
     71 HN41       -0.2850    0.6130    5.7400 hn        1 DEQ      0.465800
     72 HN42        1.2130    0.3780    4.9620 hn        1 DEQ      0.465800
     73 HN31      -11.5230   -7.2550  -12.4500 hn        1 DEQ      0.465800
     74 HN32      -10.0190   -7.5180  -13.2090 hn        1 DEQ      0.465800
@<TRIPOS>BOND
     1    1    2 ar  
     2    1    5 ar  
     3    1   35 1   
     4    2    3 ar  
     5    2   36 1   
     6    3    4 ar  
     7    3   37 1   
     8    4    6 ar  
     9    4   38 1   
    10    5    6 ar  
    11    5   10 1   
    12    6    7 ar  
    13    7    8 ar  
    14    7   33 1   
    15    8    9 ar  
    16    8   39 1   
    17    9   10 2   
    18    9   31 1   
    19   10   30 1   
    20   11   12 ar  
    21   11   16 ar  
    22   11   17 ar  
    23   12   13 1   
    24   12   20 ar  
    25   13   14 2   
    26   13   21 1   
    27   14   15 ar  
    28   14   32 1   
    29   15   16 ar  
    30   15   40 1   
    31   16   34 1   
    32   17   18 ar  
    33   17   41 1   
    34   18   19 ar  
    35   18   42 1   
    36   19   20 ar  
    37   19   43 1   
    38   20   44 1   
    39   21   22 1   
    40   21   45 1   
    41   21   46 1   
    42   22   23 1   
    43   22   47 1   
    44   22   48 1   
    45   23   24 1   
    46   23   49 1   
    47   23   50 1   
    48   24   25 1   
    49   24   51 1   
    50   24   52 1   
    51   25   26 1   
    52   25   53 1   
    53   25   54 1   
    54   26   27 1   
    55   26   55 1   
    56   26   56 1   
    57   27   28 1   
    58   27   57 1   
    59   27   58 1   
    60   28   29 1   
    61   28   59 1   
    62   28   60 1   
    63   29   30 1   
    64   29   61 1   
    65   29   62 1   
    66   30   63 1   
    67   30   64 1   
    68   31   65 1   
    69   31   66 1   
    70   31   67 1   
    71   32   68 1   
    72   32   69 1   
    73   32   70 1   
    74   33   71 1   
    75   33   72 1   
    76   34   73 1   
    77   34   74 1   
@<TRIPOS>SUBSTRUCTURE
     1 DEQ         1 TEMP              0 ****  ****    0 ROOT
