@<TRIPOS>MOLECULE
molecule
   74    77     1     0     0
SMALL
bcc


@<TRIPOS>ATOM
      1 C1           0.0000     0.0000     0.0000 ca         1 DEQ      -0.167000
      2 C2           1.3620     0.0000     0.0000 ca         1 DEQ      -0.043000
      3 C3           2.0800     0.0000     1.1930 ca         1 DEQ      -0.117000
      4 C4           1.4370     0.0010     2.3950 ca         1 DEQ      -0.065500
      5 C5          -0.6970    -0.0010     1.2200 ca         1 DEQ       0.051200
      6 C6           0.0360     0.0010     2.4310 ca         1 DEQ      -0.119500
      7 C7          -0.6700     0.0000     3.6580 ca         1 DEQ       0.322100
      8 C8          -2.0540    -0.0010     3.6100 ca         1 DEQ      -0.254000
      9 C9          -2.7000    -0.0020     2.3800 ca         1 DEQ       0.065400
     10 N1          -2.0350    -0.0070     1.2490 na         1 DEQ      -0.052100
     11 C10        -10.6060    -6.3380    -9.8830 ca         1 DEQ      -0.119500
     12 C11         -9.8430    -6.4210    -8.6930 ca         1 DEQ       0.051200
     13 N2          -8.5980    -6.9110    -8.7300 na         1 DEQ      -0.052100
     14 C12         -8.0560    -7.3320    -9.8500 ca         1 DEQ       0.065400
     15 C13         -8.7400    -7.2880   -11.0570 ca         1 DEQ      -0.254000
     16 C14        -10.0320    -6.7880   -11.0970 ca         1 DEQ       0.322100
     17 C15        -11.9070    -5.8200    -9.8390 ca         1 DEQ      -0.065500
     18 C16        -12.4240    -5.3980    -8.6510 ca         1 DEQ      -0.117000
     19 C17        -11.6750    -5.4730    -7.4800 ca         1 DEQ      -0.043000
     20 C18        -10.4080    -5.9710    -7.4870 ca         1 DEQ      -0.167000
     21 C19         -7.1290    -7.2660    -7.4740 c3         1 DEQ       0.075300
     22 C20         -6.8780    -5.8220    -7.0380 c3         1 DEQ      -0.111400
     23 C21         -6.1040    -5.8150    -5.7180 c3         1 DEQ      -0.079400
     24 C22         -5.8520    -4.3700    -5.2810 c3         1 DEQ      -0.078400
     25 C23         -5.0780    -4.3620    -3.9620 c3         1 DEQ      -0.080900
     26 C24         -4.8280    -2.9180    -3.5260 c3         1 DEQ      -0.080900
     27 C25         -4.0520    -2.9110    -2.2060 c3         1 DEQ      -0.078400
     28 C26         -3.8010    -1.4650    -1.7700 c3         1 DEQ      -0.079400
     29 C27         -3.0270    -1.4590    -0.4510 c3         1 DEQ      -0.111400
     30 C28         -2.7760    -0.0140    -0.0140 c3         1 DEQ       0.075300
     31 C30         -4.2060    -0.0030     2.3450 c3         1 DEQ      -0.078300
     32 C29         -6.6550    -7.8840    -9.8220 c3         1 DEQ      -0.078300
     33 N4           0.0040     0.0000     4.8700 nv         1 DEQ      -0.917700
     34 N3         -10.7410    -6.7320   -12.2860 nv         1 DEQ      -0.917700
     35 H11         -0.5440     0.0000    -0.9370 ha         1 DEQ       0.150000
     36 H21          1.8940    -0.0010    -0.9430 ha         1 DEQ       0.162000
     37 H31          3.1630    -0.0000     1.1650 ha         1 DEQ       0.166500
     38 H41          2.0060     0.0010     3.3170 ha         1 DEQ       0.161500
     39 H81         -2.6310     0.0030     4.5270 ha         1 DEQ       0.183000
     40 H131        -8.2650    -7.6420   -11.9640 ha         1 DEQ       0.183000
     41 H151       -12.4990    -5.7570   -10.7440 ha         1 DEQ       0.161500
     42 H161       -13.4300    -4.9970    -8.6180 ha         1 DEQ       0.166500
     43 H171       -12.1080    -5.1310    -6.5480 ha         1 DEQ       0.162000
     44 H181        -9.8390    -6.0230    -6.5670 ha         1 DEQ       0.150000
     45 H191        -7.5360    -7.4830    -6.4940 h1         1 DEQ       0.103450
     46 H192        -6.5540    -8.1160    -7.8220 h1         1 DEQ       0.103450
     47 H201        -7.7770    -5.4190    -6.5880 hc         1 DEQ       0.071950
     48 H202        -6.6070    -5.2260    -7.9010 hc         1 DEQ       0.071950
     49 H211        -6.6810    -6.3270    -4.9580 hc         1 DEQ       0.053450
     50 H212        -5.1560    -6.3220    -5.8530 hc         1 DEQ       0.053450
     51 H221        -6.8000    -3.8640    -5.1460 hc         1 DEQ       0.051200
     52 H222        -5.2750    -3.8580    -6.0420 hc         1 DEQ       0.051200
     53 H231        -4.1300    -4.8690    -4.0970 hc         1 DEQ       0.048950
     54 H232        -5.6560    -4.8740    -3.2010 hc         1 DEQ       0.048950
     55 H241        -5.7760    -2.4120    -3.3900 hc         1 DEQ       0.048950
     56 H242        -4.2500    -2.4060    -4.2870 hc         1 DEQ       0.048950
     57 H251        -4.6290    -3.4230    -1.4450 hc         1 DEQ       0.051200
     58 H252        -3.1040    -3.4170    -2.3410 hc         1 DEQ       0.051200
     59 H261        -3.2240    -0.9540    -2.5310 hc         1 DEQ       0.053450
     60 H262        -4.7500    -0.9590    -1.6360 hc         1 DEQ       0.053450
     61 H271        -3.6050    -1.9700     0.3100 hc         1 DEQ       0.071950
     62 H272        -2.0790    -1.9650    -0.5860 hc         1 DEQ       0.071950
     63 H281        -3.7240     0.4930     0.1210 h1         1 DEQ       0.103450
     64 H282        -2.1980     0.4980    -0.7740 h1         1 DEQ       0.103450
     65 H301        -4.5530     0.8020     1.7090 hc         1 DEQ       0.080033
     66 H302        -4.5570    -0.9500     1.9530 hc         1 DEQ       0.080033
     67 H303        -4.5900     0.1380     3.3480 hc         1 DEQ       0.080033
     68 H291        -6.4140    -8.3090   -10.7890 hc         1 DEQ       0.080033
     69 H292        -5.9570    -7.0880    -9.5930 hc         1 DEQ       0.080033
     70 H293        -6.5850    -8.6540    -9.0620 hc         1 DEQ       0.080033
     71 HN41         0.2320     0.8670     5.3160 hn         1 DEQ       0.465050
     72 HN42         0.2300    -0.8670     5.3160 hn         1 DEQ       0.465050
     73 HN31       -11.6760    -6.3740   -12.2950 hn         1 DEQ       0.465050
     74 HN32       -10.3220    -7.0580   -13.1340 hn         1 DEQ       0.465050
@<TRIPOS>BOND
     1     1     2 ar
     2     1     5 ar
     3     1    35 1
     4     2     3 ar
     5     2    36 1
     6     3     4 ar
     7     3    37 1
     8     4     6 ar
     9     4    38 1
    10     5     6 ar
    11     5    10 1
    12     6     7 ar
    13     7     8 ar
    14     7    33 1
    15     8     9 ar
    16     8    39 1
    17     9    10 2
    18     9    31 1
    19    10    30 1
    20    11    12 ar
    21    11    16 ar
    22    11    17 ar
    23    12    13 1
    24    12    20 ar
    25    13    14 2
    26    13    21 1
    27    14    15 ar
    28    14    32 1
    29    15    16 ar
    30    15    40 1
    31    16    34 1
    32    17    18 ar
    33    17    41 1
    34    18    19 ar
    35    18    42 1
    36    19    20 ar
    37    19    43 1
    38    20    44 1
    39    21    22 1
    40    21    45 1
    41    21    46 1
    42    22    23 1
    43    22    47 1
    44    22    48 1
    45    23    24 1
    46    23    49 1
    47    23    50 1
    48    24    25 1
    49    24    51 1
    50    24    52 1
    51    25    26 1
    52    25    53 1
    53    25    54 1
    54    26    27 1
    55    26    55 1
    56    26    56 1
    57    27    28 1
    58    27    57 1
    59    27    58 1
    60    28    29 1
    61    28    59 1
    62    28    60 1
    63    29    30 1
    64    29    61 1
    65    29    62 1
    66    30    63 1
    67    30    64 1
    68    31    65 1
    69    31    66 1
    70    31    67 1
    71    32    68 1
    72    32    69 1
    73    32    70 1
    74    33    71 1
    75    33    72 1
    76    34    73 1
    77    34    74 1
@<TRIPOS>SUBSTRUCTURE
     1 DEQ         1 TEMP              0 ****  ****    0 ROOT
