@<TRIPOS>MOLECULE
molecule
   19    18     1     0     0
SMALL
bcc


@<TRIPOS>ATOM
      1 OH2          0.0000     0.0000     0.0000 o          1 DER      -0.879800
      2 C1           1.3430     0.0000     0.0000 c          1 DER       0.882600
      3 OH1          1.9450     0.0000    -1.0460 o          1 DER      -0.879800
      4 C2           2.0950     0.0000     1.3040 c3         1 DER       0.040100
      5 O2           3.4990    -0.0000     1.0440 oh         1 DER      -0.578800
      6 C3           1.7260    -1.2480     2.1080 c3         1 DER       0.167100
      7 O3           2.0720    -2.4150     1.3590 oh         1 DER      -0.590800
      8 C4           2.4890    -1.2480     3.4310 c3         1 DER       0.136400
      9 O4           2.1450    -2.4140     4.1810 os         1 DER      -0.557200
     10 P            2.9820    -2.3490     5.5560 p5         1 DER       1.190900
     11 O1P          2.6180    -1.1220     6.2970 o          1 DER      -0.931500
     12 O2P          2.6400    -3.6400     6.4540 o          1 DER      -0.931500
     13 O3P          4.5570    -2.3280     5.2240 o          1 DER      -0.931500
     14 H2           1.8330     0.8850     1.8720 h1         1 DER       0.012700
     15 HO2          3.7990     0.8870     0.9340 ho         1 DER       0.355000
     16 H3           0.6610    -1.2480     2.3060 h1         1 DER       0.037700
     17 HO3          1.3560    -3.0280     1.3840 ho         1 DER       0.374000
     18 H41          3.5540    -1.2480     3.2330 h1         1 DER       0.043200
     19 H42          2.2280    -0.3640     3.9990 h1         1 DER       0.043200
@<TRIPOS>BOND
     1     1     2 1
     2     2     3 1
     3     2     4 1
     4     4     5 1
     5     4     6 1
     6     4    14 1
     7     5    15 1
     8     6     7 1
     9     6     8 1
    10     6    16 1
    11     7    17 1
    12     8     9 1
    13     8    18 1
    14     8    19 1
    15     9    10 1
    16    10    11 1
    17    10    12 1
    18    10    13 1
@<TRIPOS>SUBSTRUCTURE
     1 DER         1 TEMP              0 ****  ****    0 ROOT
