@<TRIPOS>MOLECULE
DER
   19    18     1     0     0
SMALL
bcc


@<TRIPOS>ATOM
      1 OH2         0.1070    1.0560    0.4960 o         1 DER     -0.881300
      2 C1          1.1760    0.4510    0.1810 c         1 DER      0.892600
      3 OH1         1.4600    0.1740   -1.0270 o         1 DER     -0.881300
      4 C2          2.2120    0.1110    1.2730 c3        1 DER      0.034100
      5 O2          3.4980   -0.0010    0.6740 oh        1 DER     -0.634800
      6 C3          1.8830   -1.1530    2.0910 c3        1 DER      0.108100
      7 O3          2.2770   -2.2850    1.3230 oh        1 DER     -0.655800
      8 C4          2.5860   -1.1390    3.4760 c3        1 DER      0.182400
      9 O4          2.7570   -2.4260    3.9330 os        1 DER     -0.586200
     10 P           2.7370   -2.6420    5.6530 p5        1 DER      1.325900
     11 O1P         1.5950   -1.7720    6.1110 o         1 DER     -0.942833
     12 O2P         2.5160   -4.1290    5.7660 o         1 DER     -0.942833
     13 O3P         4.1040   -2.1630    6.0770 o         1 DER     -0.942833
     14 H2          2.2980    0.9810    1.9800 h1        1 DER      0.044700
     15 HO2         3.3870   -0.6500   -0.0340 ho        1 DER      0.408000
     16 H3          0.7690   -1.2130    2.2300 h1        1 DER      0.031700
     17 HO3         2.6430   -2.9270    1.9510 ho        1 DER      0.429000
     18 H41         1.9710   -0.5410    4.2030 h1        1 DER      0.004700
     19 H42         3.5870   -0.6340    3.3280 h1        1 DER      0.004700
@<TRIPOS>BOND
     1    1    2 1   
     2    2    3 1   
     3    2    4 1   
     4    4    5 1   
     5    4    6 1   
     6    4   14 1   
     7    5   15 1   
     8    6    7 1   
     9    6    8 1   
    10    6   16 1   
    11    7   17 1   
    12    8    9 1   
    13    8   18 1   
    14    8   19 1   
    15    9   10 1   
    16   10   11 1   
    17   10   12 1   
    18   10   13 1   
@<TRIPOS>SUBSTRUCTURE
     1 DER         1 TEMP              0 ****  ****    0 ROOT
