@<TRIPOS>MOLECULE
DES
   40    41     1     0     0
SMALL
bcc


@<TRIPOS>ATOM
      1 CP9         0.3670   -0.9350   -0.0500 c3        1 DES     -0.087100
      2 CP8         1.5490   -0.0030    0.0690 c3        1 DES     -0.043200
      3 CP7         2.0420    0.0980    1.4770 ce        1 DES     -0.052400
      4 CP6         2.8100   -1.0680    1.9320 ca        1 DES     -0.082800
      5 CP1         2.2610   -1.9770    2.8450 ca        1 DES     -0.085500
      6 CP2         2.9810   -3.0970    3.2520 ca        1 DES     -0.185500
      7 CP3         4.2680   -3.3080    2.7400 ca        1 DES      0.122100
      8 OP3         5.0420   -4.3900    3.0950 oh        1 DES     -0.498100
      9 CP4         4.8340   -2.4080    1.8220 ca        1 DES     -0.185500
     10 CP5         4.0980   -1.2970    1.4240 ca        1 DES     -0.085500
     11 C7          1.8120    1.1710    2.2620 cf        1 DES     -0.052400
     12 C6          1.0430    2.3370    1.8070 ca        1 DES     -0.082800
     13 C5         -0.2440    2.5680    2.3170 ca        1 DES     -0.085500
     14 C4         -0.9790    3.6780    1.9190 ca        1 DES     -0.185500
     15 C3         -0.4140    4.5780    1.0000 ca        1 DES      0.122100
     16 O3         -1.1880    5.6600    0.6450 oh        1 DES     -0.498100
     17 C2          0.8720    4.3650    0.4860 ca        1 DES     -0.185500
     18 C1          1.5920    3.2450    0.8930 ca        1 DES     -0.085500
     19 C8          2.3040    1.2720    3.6700 c3        1 DES     -0.043200
     20 C9          3.4880    2.2020    3.7890 c3        1 DES     -0.087100
     21 HP91        0.0810   -1.0530   -1.1230 hc        1 DES      0.035700
     22 HP92        0.6160   -1.9410    0.3660 hc        1 DES      0.035700
     23 HP93       -0.5120   -0.5300    0.5070 hc        1 DES      0.035700
     24 HP81        1.2630    1.0130   -0.3150 hc        1 DES      0.049200
     25 HP82        2.3880   -0.3800   -0.5770 hc        1 DES      0.049200
     26 HP1         1.2490   -1.8050    3.2430 ha        1 DES      0.137000
     27 HP2         2.5450   -3.8080    3.9670 ha        1 DES      0.142000
     28 HOP3        4.5360   -4.9240    3.7240 ho        1 DES      0.419000
     29 HP4         5.8440   -2.5920    1.4320 ha        1 DES      0.142000
     30 HP5         4.5310   -0.5880    0.7030 ha        1 DES      0.137000
     31 H5         -0.6770    1.8590    3.0390 ha        1 DES      0.137000
     32 H4         -1.9890    3.8640    2.3100 ha        1 DES      0.142000
     33 HO3        -0.6820    6.1930    0.0150 ho        1 DES      0.419000
     34 H2          1.3080    5.0750   -0.2300 ha        1 DES      0.142000
     35 H1          2.6030    3.0720    0.4940 ha        1 DES      0.137000
     36 H81         2.5900    0.2560    4.0550 hc        1 DES      0.049200
     37 H82         1.4660    1.6500    4.3170 hc        1 DES      0.049200
     38 H91         4.3660    1.7970    3.2320 hc        1 DES      0.035700
     39 H92         3.2400    3.2090    3.3730 hc        1 DES      0.035700
     40 H93         3.7730    2.3200    4.8620 hc        1 DES      0.035700
@<TRIPOS>BOND
     1    1    2 1   
     2    1   21 1   
     3    1   22 1   
     4    1   23 1   
     5    2    3 1   
     6    2   24 1   
     7    2   25 1   
     8    3    4 1   
     9    3   11 2   
    10    4    5 ar  
    11    4   10 ar  
    12    5    6 ar  
    13    5   26 1   
    14    6    7 ar  
    15    6   27 1   
    16    7    8 1   
    17    7    9 ar  
    18    8   28 1   
    19    9   10 ar  
    20    9   29 1   
    21   10   30 1   
    22   11   12 1   
    23   11   19 1   
    24   12   13 ar  
    25   12   18 ar  
    26   13   14 ar  
    27   13   31 1   
    28   14   15 ar  
    29   14   32 1   
    30   15   16 1   
    31   15   17 ar  
    32   16   33 1   
    33   17   18 ar  
    34   17   34 1   
    35   18   35 1   
    36   19   20 1   
    37   19   36 1   
    38   19   37 1   
    39   20   38 1   
    40   20   39 1   
    41   20   40 1   
@<TRIPOS>SUBSTRUCTURE
     1 DES         1 TEMP              0 ****  ****    0 ROOT
