@<TRIPOS>MOLECULE
molecule
   44    43     1     0     0
SMALL
bcc


@<TRIPOS>ATOM
      1 N            0.0000     0.0000     0.0000 n4         1 DET      -0.287600
      2 O            1.4630     0.0000     0.0000 o          1 DET      -0.637000
      3 CM1         -0.4890     0.0000     1.3850 c3         1 DET       0.122600
      4 CM2         -0.4900    -1.1990    -0.6930 c3         1 DET       0.122600
      5 C1          -0.4900     1.2000    -0.6910 c3         1 DET       0.134800
      6 C2           0.0200     2.4500     0.0300 c3         1 DET      -0.090400
      7 C3          -0.4900     3.6990    -0.6900 c3         1 DET      -0.082400
      8 C4           0.0200     4.9480     0.0320 c3         1 DET      -0.079400
      9 C5          -0.4900     6.1980    -0.6890 c3         1 DET      -0.082400
     10 C6           0.0200     7.4460     0.0330 c3         1 DET      -0.081400
     11 C7          -0.4900     8.6960    -0.6880 c3         1 DET      -0.081400
     12 C8           0.0200     9.9450     0.0340 c3         1 DET      -0.082400
     13 C9          -0.4890    11.1940    -0.6860 c3         1 DET      -0.081400
     14 C10          0.0200    12.4430     0.0350 c3         1 DET      -0.084400
     15 C11         -0.4900    13.6930    -0.6850 c3         1 DET      -0.092100
     16 HM11        -0.4870    -1.0130     1.7680 hx         1 DET       0.061700
     17 HM12        -1.4980     0.3940     1.4110 hx         1 DET       0.061700
     18 HM13         0.1560     0.6190     1.9960 hx         1 DET       0.061700
     19 HM21        -1.5730    -1.2080    -0.6760 hx         1 DET       0.061700
     20 HM22        -0.1130    -2.0830    -0.1950 hx         1 DET       0.061700
     21 HM23        -0.1450    -1.1880    -1.7200 hx         1 DET       0.061700
     22 H11         -1.5740     1.2010    -0.6910 hx         1 DET       0.059700
     23 H12         -0.1300     1.2010    -1.7130 hx         1 DET       0.059700
     24 H21         -0.3400     2.4490     1.0520 hc         1 DET       0.067200
     25 H22          1.1040     2.4490     0.0290 hc         1 DET       0.067200
     26 H31         -1.5730     3.6980    -0.6900 hc         1 DET       0.039700
     27 H32         -0.1290     3.6990    -1.7120 hc         1 DET       0.039700
     28 H41         -0.3410     4.9470     1.0530 hc         1 DET       0.044700
     29 H42          1.1030     4.9480     0.0310 hc         1 DET       0.044700
     30 H51         -1.5740     6.1980    -0.6880 hc         1 DET       0.040700
     31 H52         -0.1300     6.1980    -1.7100 hc         1 DET       0.040700
     32 H61          1.1040     7.4450     0.0320 hc         1 DET       0.042200
     33 H62         -0.3400     7.4450     1.0540 hc         1 DET       0.042200
     34 H71         -0.1290     8.6970    -1.7090 hc         1 DET       0.040700
     35 H72         -1.5730     8.6960    -0.6870 hc         1 DET       0.040700
     36 H81         -0.3410     9.9450     1.0560 hc         1 DET       0.041200
     37 H82          1.1030     9.9450     0.0350 hc         1 DET       0.041200
     38 H91         -0.1280    11.1940    -1.7080 hc         1 DET       0.040700
     39 H92         -1.5730    11.1940    -0.6870 hc         1 DET       0.040700
     40 H101         1.1040    12.4430     0.0350 hc         1 DET       0.040200
     41 H102        -0.3400    12.4420     1.0570 hc         1 DET       0.040200
     42 H111        -0.1280    14.5770    -0.1740 hc         1 DET       0.032367
     43 H112        -1.5730    13.6930    -0.6840 hc         1 DET       0.032367
     44 H113        -0.1300    13.6940    -1.7060 hc         1 DET       0.032367
@<TRIPOS>BOND
     1     1     2 1
     2     1     3 1
     3     1     4 1
     4     1     5 1
     5     3    16 1
     6     3    17 1
     7     3    18 1
     8     4    19 1
     9     4    20 1
    10     4    21 1
    11     5     6 1
    12     5    22 1
    13     5    23 1
    14     6     7 1
    15     6    24 1
    16     6    25 1
    17     7     8 1
    18     7    26 1
    19     7    27 1
    20     8     9 1
    21     8    28 1
    22     8    29 1
    23     9    10 1
    24     9    30 1
    25     9    31 1
    26    10    11 1
    27    10    32 1
    28    10    33 1
    29    11    12 1
    30    11    34 1
    31    11    35 1
    32    12    13 1
    33    12    36 1
    34    12    37 1
    35    13    14 1
    36    13    38 1
    37    13    39 1
    38    14    15 1
    39    14    40 1
    40    14    41 1
    41    15    42 1
    42    15    43 1
    43    15    44 1
@<TRIPOS>SUBSTRUCTURE
     1 DET         1 TEMP              0 ****  ****    0 ROOT
