@<TRIPOS>MOLECULE
molecule
   26    27     1     0     0
SMALL
bcc


@<TRIPOS>ATOM
      1 C4           0.0000     0.0000     0.0000 cc         1 DEW      -0.032400
      2 C5          -0.1960    -0.7720     2.3910 c3         1 DEW       0.162300
      3 C6           2.0140     0.0000     1.4470 c3         1 DEW       0.111000
      4 C7           1.5140     0.0000     0.0000 c3         1 DEW      -0.025100
      5 C9           1.0380    -3.0930     3.5030 c3         1 DEW       0.012800
      6 N1           1.2450    -0.9950     2.2080 n          1 DEW      -0.446800
      7 N2           1.9170    -4.1790     3.9570 nz         1 DEW      -0.797600
      8 C3          -0.7740    -0.3440     1.0470 cc         1 DEW      -0.159300
      9 S1          -1.0110     0.4400    -1.3700 ss         1 DEW      -0.078800
     10 C1          -2.4680     0.1320    -0.4390 cd         1 DEW      -0.055100
     11 C2          -2.1380    -0.2690     0.7850 cc         1 DEW      -0.158000
     12 O1           3.0350    -2.2550     2.5660 o          1 DEW      -0.609100
     13 H1          -0.3560     0.0100     3.1230 h1         1 DEW       0.058200
     14 H2          -0.6700    -1.6900     2.7170 h1         1 DEW       0.058200
     15 H3           3.0550    -0.3020     1.4480 h1         1 DEW       0.087700
     16 H4           1.8230     0.9770     1.8740 h1         1 DEW       0.087700
     17 H5           1.8750     0.8870    -0.5070 hc         1 DEW       0.076700
     18 H6           1.8750    -0.8870    -0.5070 hc         1 DEW       0.076700
     19 H7           0.2510    -3.5010     2.8810 hx         1 DEW       0.126700
     20 H8           0.6010    -2.6000     4.3620 hx         1 DEW       0.126700
     21 H9           1.3830    -4.8410     4.4850 hn         1 DEW       0.467133
     22 H10          2.3210    -4.6350     3.1620 hn         1 DEW       0.467133
     23 H12         -3.4810     0.2500    -0.8060 h4         1 DEW       0.188000
     24 H13         -2.8840    -0.5160     1.5310 ha         1 DEW       0.150000
     25 C8           1.8450    -2.0860     2.7250 c          1 DEW       0.639100
     26 H23          2.6850    -3.7950     4.4700 hn         1 DEW       0.467133
@<TRIPOS>BOND
     1     7     5 1
     2     5    25 1
     3    12    25 2
     4    25     6 1
     5     6     3 1
     6     6     2 1
     7     3     4 1
     8     2     8 1
     9     8    11 1
    10     8     1 2
    11    11    10 2
    12     4     1 1
    13     1     9 1
    14    10     9 1
    15     2    13 1
    16     2    14 1
    17     3    15 1
    18     3    16 1
    19     4    17 1
    20     4    18 1
    21     5    19 1
    22     5    20 1
    23     7    21 1
    24     7    22 1
    25    10    23 1
    26    11    24 1
    27    26     7 1
@<TRIPOS>SUBSTRUCTURE
     1 DEW         1 TEMP              0 ****  ****    0 ROOT
