@<TRIPOS>MOLECULE
DEX
   57    60     1     0     0
SMALL
bcc


@<TRIPOS>ATOM
      1 C1          1.5370   -0.0840    0.0520 c2        1 DEX     -0.099200
      2 C2          2.3050    0.0490    1.1380 ce        1 DEX     -0.235200
      3 C3          1.7320    0.1990    2.4860 c         1 DEX      0.563500
      4 C4          0.2640    0.2500    2.5450 ce        1 DEX     -0.242200
      5 C5         -0.5140    0.1200    1.4580 c2        1 DEX     -0.043400
      6 C6         -2.0000    0.1960    1.5550 c3        1 DEX     -0.052200
      7 C7         -2.5470    1.2540    0.6190 c3        1 DEX     -0.073400
      8 C8         -2.0840    1.0150   -0.8070 c3        1 DEX     -0.069700
      9 C9         -0.5270    0.9810   -0.8870 c3        1 DEX      0.207300
     10 C10         0.0370   -0.1320    0.0750 c3        1 DEX     -0.006600
     11 C11        -0.0640    0.8000   -2.3750 c3        1 DEX      0.127100
     12 C12        -0.7130    1.8150   -3.3220 c3        1 DEX     -0.102400
     13 C13        -2.2270    1.8330   -3.2030 c3        1 DEX     -0.026000
     14 C14        -2.5760    2.1140   -1.7250 c3        1 DEX     -0.070700
     15 C15        -4.0570    2.4560   -1.7490 c3        1 DEX     -0.065400
     16 C16        -4.2710    3.1940   -3.0820 c3        1 DEX     -0.089700
     17 C17        -2.9510    3.0350   -3.9000 c3        1 DEX      0.055800
     18 C18        -2.8310    0.5460   -3.7410 c3        1 DEX     -0.113100
     19 C19        -0.3690   -1.5490   -0.3410 c3        1 DEX     -0.072100
     20 C20        -3.2280    2.7580   -5.3770 c         1 DEX      0.542100
     21 C21        -2.1500    3.2550   -6.3140 c3        1 DEX      0.033400
     22 C22        -4.6750    4.6300   -2.8620 c3        1 DEX     -0.098100
     23 F1         -0.0120    2.2120   -0.4720 f         1 DEX     -0.232300
     24 O1          2.4380    0.2810    3.5000 o         1 DEX     -0.534100
     25 O2         -0.2940   -0.5410   -2.7700 oh        1 DEX     -0.600800
     26 O3         -2.0860    4.1560   -3.7850 oh        1 DEX     -0.587800
     27 O4         -4.2500    2.1950   -5.7660 o         1 DEX     -0.488100
     28 O5         -2.2340    2.5260   -7.5230 oh        1 DEX     -0.577800
     29 H1          1.9840   -0.2040   -0.9500 ha        1 DEX      0.136000
     30 H2          3.4050    0.0560    1.0780 ha        1 DEX      0.151000
     31 H4         -0.1650    0.4140    3.5470 ha        1 DEX      0.150000
     32 H61        -2.4300   -0.8090    1.2880 hc        1 DEX      0.057700
     33 H62        -2.3160    0.4290    2.6060 hc        1 DEX      0.057700
     34 H71        -3.6670    1.2420    0.6510 hc        1 DEX      0.055700
     35 H72        -2.2050    2.2680    0.9550 hc        1 DEX      0.055700
     36 H8         -2.4690    0.0200   -1.1570 hc        1 DEX      0.076700
     37 H11         1.0520    0.9800   -2.4010 h1        1 DEX      0.048700
     38 H211       -0.3110    2.8340   -3.0710 hc        1 DEX      0.067200
     39 H221       -0.4120    1.5760   -4.3750 hc        1 DEX      0.067200
     40 H14        -2.0280    3.0620   -1.4340 hc        1 DEX      0.077700
     41 H511       -4.6840    1.5300   -1.7110 hc        1 DEX      0.050200
     42 H521       -4.3360    3.0970   -0.8770 hc        1 DEX      0.050200
     43 H16        -5.0890    2.6760   -3.6580 hc        1 DEX      0.082700
     44 H811       -2.4780    0.3680   -4.7870 hc        1 DEX      0.052367
     45 H821       -3.9470    0.6120   -3.7570 hc        1 DEX      0.052367
     46 H831       -2.5390   -0.3320   -3.1170 hc        1 DEX      0.052367
     47 H911       -0.2610   -2.2390    0.5310 hc        1 DEX      0.051367
     48 H921       -1.4250   -1.5790   -0.6950 hc        1 DEX      0.051367
     49 H931        0.2870   -1.9180   -1.1670 hc        1 DEX      0.051367
     50 H112       -2.3110    4.3530   -6.4850 h1        1 DEX      0.053200
     51 H122       -1.1400    3.1010   -5.8430 h1        1 DEX      0.053200
     52 H212       -3.9080    5.1740   -2.2570 hc        1 DEX      0.042033
     53 H222       -5.6460    4.6680   -2.3100 hc        1 DEX      0.042033
     54 H232       -4.8080    5.1580   -3.8370 hc        1 DEX      0.042033
     55 HO2        -0.3740   -0.5490   -3.7330 ho        1 DEX      0.411000
     56 H3         -2.5900    4.9370   -4.0440 ho        1 DEX      0.407000
     57 H5         -1.7200    3.0170   -8.1750 ho        1 DEX      0.405000
@<TRIPOS>BOND
     1    1    2 2   
     2    1   10 1   
     3    1   29 1   
     4    2    3 1   
     5    2   30 1   
     6    3    4 1   
     7    3   24 2   
     8    4    5 2   
     9    4   31 1   
    10    5    6 1   
    11    5   10 1   
    12    6    7 1   
    13    6   32 1   
    14    6   33 1   
    15    7    8 1   
    16    7   34 1   
    17    7   35 1   
    18    8    9 1   
    19    8   14 1   
    20    8   36 1   
    21    9   10 1   
    22    9   11 1   
    23    9   23 1   
    24   10   19 1   
    25   11   12 1   
    26   11   25 1   
    27   11   37 1   
    28   12   13 1   
    29   12   38 1   
    30   12   39 1   
    31   13   14 1   
    32   13   17 1   
    33   13   18 1   
    34   14   15 1   
    35   14   40 1   
    36   15   16 1   
    37   15   41 1   
    38   15   42 1   
    39   16   17 1   
    40   16   22 1   
    41   16   43 1   
    42   17   20 1   
    43   17   26 1   
    44   18   44 1   
    45   18   45 1   
    46   18   46 1   
    47   19   47 1   
    48   19   48 1   
    49   19   49 1   
    50   20   21 1   
    51   20   27 2   
    52   21   28 1   
    53   21   50 1   
    54   21   51 1   
    55   22   52 1   
    56   22   53 1   
    57   22   54 1   
    58   25   55 1   
    59   26   56 1   
    60   28   57 1   
@<TRIPOS>SUBSTRUCTURE
     1 DEX         1 TEMP              0 ****  ****    0 ROOT
