@<TRIPOS>MOLECULE
molecule
   57    60     1     0     0
SMALL
bcc


@<TRIPOS>ATOM
      1 C1           0.0000     0.0000     0.0000 c2         1 DEX      -0.107200
      2 C2           1.3240     0.0000     0.0000 ce         1 DEX      -0.226200
      3 C3           2.0570     0.0000     1.2770 c          1 DEX       0.564500
      4 C4           1.2860     0.0590     2.5280 ce         1 DEX      -0.239200
      5 C5          -0.0400     0.0650     2.5040 c2         1 DEX      -0.048400
      6 C6          -0.7990     0.1480     3.8140 c3         1 DEX      -0.048200
      7 C7          -1.8130     1.2930     3.7060 c3         1 DEX      -0.075400
      8 C8          -2.7060     1.0760     2.4830 c3         1 DEX      -0.086700
      9 C9          -1.8680     1.1210     1.1960 c3         1 DEX       0.209300
     10 C10         -0.8350    -0.0080     1.2340 c3         1 DEX      -0.019600
     11 C11         -2.7230     0.9790    -0.0590 c3         1 DEX       0.125100
     12 C12         -3.8630     2.0080    -0.0890 c3         1 DEX      -0.077400
     13 C13         -4.6740     1.8660     1.2000 c3         1 DEX      -0.047000
     14 C14         -3.7370     2.1840     2.3940 c3         1 DEX      -0.068700
     15 C15         -4.7310     2.2670     3.5560 c3         1 DEX      -0.067400
     16 C16         -5.9260     3.0430     2.9370 c3         1 DEX      -0.094700
     17 C17         -5.8470     2.8210     1.4070 c3         1 DEX       0.074800
     18 C18         -5.1370     0.4180     1.3620 c3         1 DEX      -0.104100
     19 C19         -1.6300    -1.3140     1.2540 c3         1 DEX      -0.071100
     20 C20         -7.1290     2.1840     0.9400 c          1 DEX       0.533100
     21 C21         -7.5400     2.2880    -0.5060 c3         1 DEX       0.043400
     22 C22         -5.8070     4.5330     3.2600 c3         1 DEX      -0.083100
     23 F1          -1.2040     2.3500     1.1420 f          1 DEX      -0.229300
     24 O1           3.2720    -0.0470     1.2970 o          1 DEX      -0.524100
     25 O2          -3.2830    -0.3350    -0.0960 oh         1 DEX      -0.601800
     26 O3          -5.6180     4.0450     0.7070 oh         1 DEX      -0.587800
     27 O4          -7.8290     1.5890     1.7240 o          1 DEX      -0.478100
     28 O5          -8.7820     1.6090    -0.7000 oh         1 DEX      -0.583800
     29 H1          -0.5080     0.0060    -0.9570 ha         1 DEX       0.124000
     30 H2           1.8660    -0.0750    -0.9350 ha         1 DEX       0.152000
     31 H4           1.8060     0.0970     3.4780 ha         1 DEX       0.153000
     32 H61         -0.1080     0.3490     4.6240 hc         1 DEX       0.058200
     33 H62         -1.3200    -0.7840     3.9940 hc         1 DEX       0.058200
     34 H71         -2.4250     1.3150     4.5990 hc         1 DEX       0.057700
     35 H72         -1.2830     2.2320     3.6020 hc         1 DEX       0.057700
     36 H8          -3.2060     0.1170     2.5610 hc         1 DEX       0.089700
     37 H11         -2.0950     1.1250    -0.9290 h1         1 DEX       0.048700
     38 H211        -4.5010     1.8190    -0.9430 hc         1 DEX       0.061200
     39 H221        -3.4490     3.0080    -0.1490 hc         1 DEX       0.061200
     40 H14         -3.2510     3.1410     2.2450 hc         1 DEX       0.078700
     41 H511        -5.0400     1.2760     3.8660 hc         1 DEX       0.053200
     42 H521        -4.3050     2.8200     4.3840 hc         1 DEX       0.053200
     43 H16         -6.8600     2.6480     3.3200 hc         1 DEX       0.083700
     44 H811        -5.8600     0.3570     2.1670 hc         1 DEX       0.054033
     45 H821        -4.2860    -0.2100     1.5940 hc         1 DEX       0.054033
     46 H831        -5.5950     0.0790     0.4400 hc         1 DEX       0.054033
     47 H911        -1.8480    -1.6200     0.2380 hc         1 DEX       0.050367
     48 H921        -2.5580    -1.1640     1.7920 hc         1 DEX       0.050367
     49 H931        -1.0480    -2.0840     1.7460 hc         1 DEX       0.050367
     50 H112        -7.6530     3.3310    -0.7750 h1         1 DEX       0.046700
     51 H122        -6.7800     1.8340    -1.1310 h1         1 DEX       0.046700
     52 H212        -5.7540     4.6670     4.3340 hc         1 DEX       0.039367
     53 H222        -4.9100     4.9320     2.8020 hc         1 DEX       0.039367
     54 H232        -6.6730     5.0570     2.8740 hc         1 DEX       0.039367
     55 HO2         -3.3980    -0.6020    -0.9930 ho         1 DEX       0.401000
     56 H3          -6.4270     4.5250     0.6410 ho         1 DEX       0.404000
     57 H5          -9.1960     1.9290    -1.4840 ho         1 DEX       0.405000
@<TRIPOS>BOND
     1     1     2 2
     2     1    10 1
     3     1    29 1
     4     2     3 1
     5     2    30 1
     6     3     4 1
     7     3    24 2
     8     4     5 2
     9     4    31 1
    10     5     6 1
    11     5    10 1
    12     6     7 1
    13     6    32 1
    14     6    33 1
    15     7     8 1
    16     7    34 1
    17     7    35 1
    18     8     9 1
    19     8    14 1
    20     8    36 1
    21     9    10 1
    22     9    11 1
    23     9    23 1
    24    10    19 1
    25    11    12 1
    26    11    25 1
    27    11    37 1
    28    12    13 1
    29    12    38 1
    30    12    39 1
    31    13    14 1
    32    13    17 1
    33    13    18 1
    34    14    15 1
    35    14    40 1
    36    15    16 1
    37    15    41 1
    38    15    42 1
    39    16    17 1
    40    16    22 1
    41    16    43 1
    42    17    20 1
    43    17    26 1
    44    18    44 1
    45    18    45 1
    46    18    46 1
    47    19    47 1
    48    19    48 1
    49    19    49 1
    50    20    21 1
    51    20    27 2
    52    21    28 1
    53    21    50 1
    54    21    51 1
    55    22    52 1
    56    22    53 1
    57    22    54 1
    58    25    55 1
    59    26    56 1
    60    28    57 1
@<TRIPOS>SUBSTRUCTURE
     1 DEX         1 TEMP              0 ****  ****    0 ROOT
