@<TRIPOS>MOLECULE
molecule
   62    65     1     0     0
SMALL
bcc


@<TRIPOS>ATOM
      1 O32          0.0000     0.0000     0.0000 o          1 DEY      -0.611800
      2 S36          1.4210     0.0000     0.0000 sy         1 DEY       1.402200
      3 O31          2.2090    -0.9710    -0.6750 o          1 DEY      -0.611800
      4 C9           1.9370     0.0000     1.6920 ca         1 DEY      -0.319500
      5 C5           1.3480    -0.8230     2.6170 ca         1 DEY      -0.104000
      6 C8           1.7850    -0.8000     3.9370 ca         1 DEY       0.066100
      7 O34          1.2070    -1.6120     4.8610 os         1 DEY      -0.292900
      8 C22          0.1710    -2.4820     4.4010 c3         1 DEY       0.078100
      9 C17         -1.1680    -1.7400     4.4280 c3         1 DEY      -0.133100
     10 C16          0.0930    -3.6910     5.2980 c          1 DEY       0.468100
     11 O30          0.7890    -3.7540     6.2900 o          1 DEY      -0.359100
     12 N28         -0.7470    -4.7000     4.9990 nz         1 DEY      -0.681400
     13 C3           2.8140     0.0550     4.3100 ca         1 DEY      -0.076000
     14 N26          1.9090     1.4980    -0.5570 nu         1 DEY      -0.831100
     15 C14          3.1050     1.9830    -0.0540 ce         1 DEY       0.796500
     16 N24          3.5440     1.6990     1.1340 nf         1 DEY      -0.685100
     17 C7           2.9720     0.8720     2.0540 ca         1 DEY       0.264400
     18 C2           3.4070     0.8860     3.3830 ca         1 DEY      -0.082000
     19 C12          3.9180     2.8640    -0.9080 cc         1 DEY      -0.299800
     20 C13          5.1300     3.3770    -0.4480 cd         1 DEY       0.136500
     21 O33          5.5750     3.0730     0.7920 oh         1 DEY      -0.480100
     22 C15          3.4860     3.1990    -2.2170 c          1 DEY       0.690700
     23 O29          2.4320     2.7600    -2.6460 o          1 DEY      -0.660500
     24 N27          4.2460     4.0060    -2.9820 n          1 DEY      -0.180800
     25 C21          3.7990     4.3530    -4.3330 c3         1 DEY       0.117000
     26 C20          2.9490     5.6250    -4.2790 c3         1 DEY      -0.098400
     27 C23          2.4830     5.9880    -5.6900 c3         1 DEY      -0.074700
     28 C19          1.5460     4.8970    -6.2140 c3         1 DEY      -0.089600
     29 C18          1.7390     7.3240    -5.6530 c3         1 DEY      -0.089600
     30 N25          5.4550     4.5170    -2.5020 nc         1 DEY      -0.381300
     31 C11          5.8890     4.2230    -1.2960 cd         1 DEY       0.418200
     32 C10          7.1750     4.7750    -0.8240 cd         1 DEY      -0.110000
     33 C4           8.2940     4.8910    -1.5670 cc         1 DEY      -0.101000
     34 S35          7.4810     5.3910     0.7960 ss         1 DEY      -0.094800
     35 C6           9.1450     5.7720     0.3700 cd         1 DEY      -0.058100
     36 C1           9.3720     5.4390    -0.9050 cc         1 DEY      -0.165000
     37 H5           0.4810    -1.4120     2.3430 ha         1 DEY       0.126000
     38 H22          0.3870    -2.7980     3.3880 h1         1 DEY       0.088700
     39 H17         -1.8050    -2.1160     3.6370 hc         1 DEY       0.074033
     40 H17A        -0.9970    -0.6810     4.2820 hc         1 DEY       0.074033
     41 H17B        -1.6500    -1.8990     5.3860 hc         1 DEY       0.074033
     42 HN28        -1.6510    -4.5060     5.3830 hn         1 DEY       0.480133
     43 HN2A        -0.8190    -4.7900     4.0050 hn         1 DEY       0.480133
     44 H3           3.1520     0.0720     5.3390 ha         1 DEY       0.159000
     45 HN26         1.3650     2.0170    -1.2180 hn         1 DEY       0.514800
     46 H2           4.2090     1.5490     3.6850 ha         1 DEY       0.173000
     47 HO33         6.2410     2.4080     0.7330 ho         1 DEY       0.451000
     48 H21          4.6610     4.5220    -4.9670 h1         1 DEY       0.081700
     49 H21A         3.2070     3.5400    -4.7370 h1         1 DEY       0.081700
     50 H20          2.0870     5.4560    -3.6460 hc         1 DEY       0.056700
     51 H20A         3.5410     6.4370    -3.8740 hc         1 DEY       0.056700
     52 H23          3.3420     6.0710    -6.3440 hc         1 DEY       0.051700
     53 H19          2.1280     4.0370    -6.5200 hc         1 DEY       0.038200
     54 H19A         0.8570     4.6060    -5.4300 hc         1 DEY       0.038200
     55 H19B         0.9890     5.2770    -7.0620 hc         1 DEY       0.038200
     56 H18          0.9060     7.2550    -4.9640 hc         1 DEY       0.038200
     57 H18A         2.4150     8.1050    -5.3260 hc         1 DEY       0.038200
     58 H18B         1.3690     7.5590    -6.6440 hc         1 DEY       0.038200
     59 H4           8.3420     4.5770    -2.6030 ha         1 DEY       0.161000
     60 H6           9.8740     6.2140     1.0380 h4         1 DEY       0.180000
     61 H1          10.3330     5.5870    -1.3820 ha         1 DEY       0.159000
     62 H283        -0.3990    -5.5520     5.3920 hn         1 DEY       0.480133
@<TRIPOS>BOND
     1     1     2 2
     2     2     3 2
     3     2     4 1
     4     2    14 1
     5     4     5 ar
     6     4    17 ar
     7     5     6 ar
     8     6     7 1
     9     6    13 ar
    10     7     8 1
    11     8     9 1
    12     8    10 1
    13    10    11 2
    14    10    12 1
    15    13    18 ar
    16    14    15 1
    17    15    16 2
    18    15    19 1
    19    16    17 1
    20    17    18 ar
    21    19    20 2
    22    19    22 1
    23    20    21 1
    24    20    31 1
    25    22    23 2
    26    22    24 1
    27    24    25 1
    28    24    30 1
    29    25    26 1
    30    26    27 1
    31    27    28 1
    32    27    29 1
    33    30    31 2
    34    31    32 1
    35    32    33 2
    36    32    34 1
    37    33    36 1
    38    34    35 1
    39    35    36 2
    40     5    37 1
    41     8    38 1
    42     9    39 1
    43     9    40 1
    44     9    41 1
    45    12    42 1
    46    12    43 1
    47    13    44 1
    48    14    45 1
    49    18    46 1
    50    21    47 1
    51    25    48 1
    52    25    49 1
    53    26    50 1
    54    26    51 1
    55    27    52 1
    56    28    53 1
    57    28    54 1
    58    28    55 1
    59    29    56 1
    60    29    57 1
    61    29    58 1
    62    33    59 1
    63    35    60 1
    64    36    61 1
    65    62    12 1
@<TRIPOS>SUBSTRUCTURE
     1 DEY         1 TEMP              0 ****  ****    0 ROOT
