@<TRIPOS>MOLECULE
DEZ
   19    18     1     0     0
SMALL
bcc


@<TRIPOS>ATOM
      1 OH2        -0.0710    0.0790    0.3800 o         1 DEZ     -0.881800
      2 C1          1.1090   -0.1440   -0.0390 c         1 DEZ      0.895600
      3 OH1         1.3480   -0.4460   -1.2470 o         1 DEZ     -0.881800
      4 C2          2.2560   -0.1390    0.9970 c3        1 DEZ      0.034100
      5 O2          1.8180   -0.8760    2.1350 oh        1 DEZ     -0.629800
      6 C3          2.7060    1.2740    1.4180 c3        1 DEZ      0.113100
      7 O3          3.5870    1.7630    0.4110 oh        1 DEZ     -0.649800
      8 C4          3.3910    1.3050    2.8060 c3        1 DEZ      0.173400
      9 O4          4.1020    2.4830    2.9340 os        1 DEZ     -0.587200
     10 P           4.8660    2.6410    4.4770 p5        1 DEZ      1.322900
     11 O1P         3.7180    2.5470    5.4510 o         1 DEZ     -0.944833
     12 O2P         5.8320    1.4840    4.5080 o         1 DEZ     -0.944833
     13 O3P         5.5030    4.0040    4.3580 o         1 DEZ     -0.944833
     14 H2          3.1360   -0.7120    0.6020 h1        1 DEZ      0.052700
     15 HA          0.9910   -0.4590    2.4080 ho        1 DEZ      0.400000
     16 H3          1.8060    1.9510    1.4330 h1        1 DEZ      0.020700
     17 HB          4.2470    2.3050    0.8730 ho        1 DEZ      0.427000
     18 H4C1        2.6090    1.2330    3.6100 h1        1 DEZ      0.013200
     19 H4C2        4.0870    0.4270    2.9050 h1        1 DEZ      0.013200
@<TRIPOS>BOND
     1    1    2 1   
     2    2    3 1   
     3    2    4 1   
     4    4    5 1   
     5    4    6 1   
     6    4   14 1   
     7    5   15 1   
     8    6    7 1   
     9    6    8 1   
    10    6   16 1   
    11    7   17 1   
    12    8    9 1   
    13    8   18 1   
    14    8   19 1   
    15    9   10 1   
    16   10   11 1   
    17   10   12 1   
    18   10   13 1   
@<TRIPOS>SUBSTRUCTURE
     1 DEZ         1 TEMP              0 ****  ****    0 ROOT
