@<TRIPOS>MOLECULE
molecule
   19    18     1     0     0
SMALL
bcc


@<TRIPOS>ATOM
      1 OH2          0.0000     0.0000     0.0000 o          1 DEZ      -0.873800
      2 C1           1.2090     0.0000     0.0000 c          1 DEZ       0.873600
      3 OH1          1.8800    -0.0010    -1.1620 o          1 DEZ      -0.873800
      4 C2           1.9620     0.0000     1.3050 c3         1 DEZ       0.037100
      5 O2           1.0390    -0.1170     2.3890 oh         1 DEZ      -0.598800
      6 C3           2.7460     1.3070     1.4410 c3         1 DEZ       0.165100
      7 O3           3.6690     1.4240     0.3580 oh         1 DEZ      -0.585800
      8 C4           3.5100     1.3080     2.7660 c3         1 DEZ       0.136400
      9 O4           4.1470     2.5740     2.9480 os         1 DEZ      -0.560200
     10 P            4.9300     2.5040     4.3530 p5         1 DEZ       1.189900
     11 O1P          3.9840     2.1230     5.4250 o          1 DEZ      -0.931500
     12 O2P          6.1050     1.4070     4.2600 o          1 DEZ      -0.931500
     13 O3P          5.5660     3.9450     4.6860 o          1 DEZ      -0.931500
     14 H2           2.6500    -0.8370     1.3250 h1         1 DEZ       0.024700
     15 HA           0.8370    -1.0270     2.5330 ho         1 DEZ       0.365000
     16 H3           2.0580     2.1440     1.4210 h1         1 DEZ       0.025700
     17 HB           3.6740     2.3130     0.0430 ho         1 DEZ       0.380000
     18 H4C1         4.2590     0.5260     2.7510 h1         1 DEZ       0.044700
     19 H4C2         2.8200     1.1310     3.5810 h1         1 DEZ       0.044700
@<TRIPOS>BOND
     1     1     2 1
     2     2     3 1
     3     2     4 1
     4     4     5 1
     5     4     6 1
     6     4    14 1
     7     5    15 1
     8     6     7 1
     9     6     8 1
    10     6    16 1
    11     7    17 1
    12     8     9 1
    13     8    18 1
    14     8    19 1
    15     9    10 1
    16    10    11 1
    17    10    12 1
    18    10    13 1
@<TRIPOS>SUBSTRUCTURE
     1 DEZ         1 TEMP              0 ****  ****    0 ROOT
