@<TRIPOS>MOLECULE
DF0
   27    28     1     0     0
SMALL
bcc


@<TRIPOS>ATOM
      1 O           1.3020   -2.0140   -0.2020 o         1 DF0     -0.834800
      2 C7          1.4510   -0.7680   -0.0530 c         1 DF0      0.920600
      3 O1          1.2780   -0.1490    1.0310 o         1 DF0     -0.834800
      4 C6          1.9300    0.0590   -1.2740 c3        1 DF0     -0.185100
      5 C4          0.9530    0.0940   -2.3840 ca        1 DF0      0.021700
      6 C5          0.6480    1.2940   -3.0300 ca        1 DF0     -0.193000
      7 C          -0.2560    1.3160   -4.1080 ca        1 DF0      0.121900
      8 F          -0.5110    2.5070   -4.7130 f         1 DF0     -0.163900
      9 C3          0.3310   -1.0890   -2.8220 ca        1 DF0     -0.138000
     10 C2         -0.5560   -1.0660   -3.8870 ca        1 DF0     -0.107000
     11 C1         -0.8690    0.1280   -4.5600 cp        1 DF0     -0.122000
     12 C8         -1.8030    0.0980   -5.6810 cp        1 DF0      0.001000
     13 C13        -2.7970    1.0770   -5.8260 ca        1 DF0     -0.122500
     14 C12        -3.6960    1.0210   -6.8890 ca        1 DF0     -0.137000
     15 C11        -3.6170   -0.0110   -7.8230 ca        1 DF0     -0.147000
     16 C10        -2.6310   -0.9880   -7.6890 ca        1 DF0     -0.137000
     17 C9         -1.7310   -0.9370   -6.6280 ca        1 DF0     -0.122500
     18 H2          2.8750   -0.4200   -1.6420 hc        1 DF0      0.043700
     19 H3          2.1710    1.0970   -0.9290 hc        1 DF0      0.043700
     20 H4          1.1060    2.2370   -2.6970 ha        1 DF0      0.138000
     21 H5          0.5470   -2.0230   -2.2670 ha        1 DF0      0.196000
     22 H6         -1.0420   -2.0000   -4.2110 ha        1 DF0      0.123000
     23 H7         -2.8580    1.8960   -5.0920 ha        1 DF0      0.139000
     24 H8         -4.4710    1.7940   -6.9890 ha        1 DF0      0.119500
     25 H9         -4.3270   -0.0540   -8.6600 ha        1 DF0      0.117000
     26 H10        -2.5630   -1.8030   -8.4240 ha        1 DF0      0.119500
     27 H11        -0.9530   -1.7080   -6.5270 ha        1 DF0      0.139000
@<TRIPOS>BOND
     1    1    2 1   
     2    2    3 1   
     3    2    4 1   
     4    4    5 1   
     5    4   18 1   
     6    4   19 1   
     7    5    6 ar  
     8    5    9 ar  
     9    6    7 ar  
    10    6   20 1   
    11    7    8 1   
    12    7   11 ar  
    13    9   10 ar  
    14    9   21 1   
    15   10   11 ar  
    16   10   22 1   
    17   11   12 1   
    18   12   13 ar  
    19   12   17 ar  
    20   13   14 ar  
    21   13   23 1   
    22   14   15 ar  
    23   14   24 1   
    24   15   16 ar  
    25   15   25 1   
    26   16   17 ar  
    27   16   26 1   
    28   17   27 1   
@<TRIPOS>SUBSTRUCTURE
     1 DF0         1 TEMP              0 ****  ****    0 ROOT
