@<TRIPOS>MOLECULE
molecule
   27    28     1     0     0
SMALL
bcc


@<TRIPOS>ATOM
      1 O            0.0000     0.0000     0.0000 o          1 DF0      -0.840300
      2 C7           1.2090     0.0000     0.0000 c          1 DF0       0.893600
      3 O1           1.8790     0.0000     1.1630 o          1 DF0      -0.840300
      4 C6           1.9620    -0.0060    -1.3050 c3         1 DF0      -0.158100
      5 C4           0.9840    -0.0120    -2.4500 ca         1 DF0       0.028700
      6 C5           0.5360     1.1850    -2.9800 ca         1 DF0      -0.162000
      7 C           -0.3610     1.1860    -4.0310 ca         1 DF0       0.135900
      8 F           -0.7980     2.3540    -4.5480 f          1 DF0      -0.157900
      9 C3           0.5410    -1.2140    -2.9720 ca         1 DF0      -0.140000
     10 C2          -0.3550    -1.2260    -4.0210 ca         1 DF0      -0.095000
     11 C1          -0.8150    -0.0250    -4.5560 cp         1 DF0      -0.125000
     12 C8          -1.7790    -0.0330    -5.6850 cp         1 DF0      -0.006000
     13 C13         -2.9380     0.7370    -5.6190 ca         1 DF0      -0.116000
     14 C12         -3.8310     0.7250    -6.6720 ca         1 DF0      -0.136000
     15 C11         -3.5770    -0.0480    -7.7890 ca         1 DF0      -0.145000
     16 C10         -2.4280    -0.8140    -7.8600 ca         1 DF0      -0.136000
     17 C9          -1.5250    -0.8050    -6.8160 ca         1 DF0      -0.116000
     18 H2           2.5850     0.8790    -1.3660 hc         1 DF0       0.043700
     19 H3           2.5860    -0.8900    -1.3580 hc         1 DF0       0.043700
     20 H4           0.8980     2.1240    -2.5770 ha         1 DF0       0.145000
     21 H5           0.8990    -2.1480    -2.5560 ha         1 DF0       0.134000
     22 H6          -0.7020    -2.1690    -4.4270 ha         1 DF0       0.121000
     23 H7          -3.1390     1.3430    -4.7440 ha         1 DF0       0.138000
     24 H8          -4.7330     1.3230    -6.6220 ha         1 DF0       0.118500
     25 H9          -4.2820    -0.0550    -8.6120 ha         1 DF0       0.115000
     26 H10         -2.2320    -1.4160    -8.7390 ha         1 DF0       0.118500
     27 H11         -0.6250    -1.4060    -6.8730 ha         1 DF0       0.138000
@<TRIPOS>BOND
     1    16    15 ar
     2    16    17 ar
     3    15    14 ar
     4    17    12 ar
     5    14    13 ar
     6    12    13 ar
     7    12    11 1
     8    11    10 ar
     9    11     7 ar
    10    10     9 ar
    11     8     7 1
    12     7     6 ar
    13     9     5 ar
    14     6     5 ar
    15     5     4 1
    16     4     2 1
    17     2     1 1
    18     2     3 1
    19     4    18 1
    20     4    19 1
    21     6    20 1
    22     9    21 1
    23    10    22 1
    24    13    23 1
    25    14    24 1
    26    15    25 1
    27    16    26 1
    28    17    27 1
@<TRIPOS>SUBSTRUCTURE
     1 DF0         1 TEMP              0 ****  ****    0 ROOT
