@<TRIPOS>MOLECULE
molecule
   46    49     1     0     0
SMALL
bcc


@<TRIPOS>ATOM
      1 C17          0.0000     0.0000     0.0000 ca         1 DF1      -0.120000
      2 C18          1.3800     0.0000     0.0000 ca         1 DF1      -0.128500
      3 C19          2.0750     0.0000     1.1950 ca         1 DF1      -0.134000
      4 C20          1.3930     0.0010     2.3980 ca         1 DF1      -0.128500
      5 C21          0.0140     0.0070     2.4120 ca         1 DF1      -0.120000
      6 C15         -0.6930     0.0010     1.2110 ca         1 DF1      -0.026800
      7 C7          -2.1730     0.0020     1.2190 cc         1 DF1      -0.057400
      8 C6          -3.0490     1.0210     1.8040 ca         1 DF1      -0.392400
      9 C4          -2.8400     2.2200     2.5010 ca         1 DF1       0.775200
     10 N10         -1.5600     2.6770     2.7580 nu         1 DF1      -0.894900
     11 C11         -1.3630     3.9350     3.4830 c3         1 DF1       0.248800
     12 C12          0.1350     4.2070     3.6340 c3         1 DF1       0.124100
     13 C14          0.3410     5.5210     4.3900 c3         1 DF1      -0.129100
     14 O13          0.7420     3.1380     4.3600 oh         1 DF1      -0.606800
     15 N3          -3.9030     2.9100     2.9050 nb         1 DF1      -0.845000
     16 C2          -5.1260     2.4780     2.6600 ca         1 DF1       0.741900
     17 N1          -5.3690     1.3570     2.0150 nb         1 DF1      -0.810000
     18 C5          -4.3690     0.5970     1.5710 ca         1 DF1       0.520800
     19 N9          -4.3130    -0.5890     0.8870 na         1 DF1      -0.259100
     20 C8          -3.0040    -0.9540     0.6700 cd         1 DF1      -0.006300
     21 C16         -2.5600    -2.1730    -0.0340 ca         1 DF1      -0.042800
     22 C22         -2.9300    -2.3880    -1.3620 ca         1 DF1      -0.105500
     23 C23         -2.5110    -3.5290    -2.0150 ca         1 DF1      -0.131000
     24 C24         -1.7280    -4.4590    -1.3560 ca         1 DF1      -0.120000
     25 C25         -1.3580    -4.2520    -0.0380 ca         1 DF1      -0.131000
     26 C26         -1.7650    -3.1120     0.6240 ca         1 DF1      -0.105500
     27 H17         -0.5430    -0.0020    -0.9370 ha         1 DF1       0.142000
     28 H18          1.9200    -0.0010    -0.9390 ha         1 DF1       0.131500
     29 H19          3.1580    -0.0020     1.1890 ha         1 DF1       0.127000
     30 H20          1.9430     0.0030     3.3310 ha         1 DF1       0.131500
     31 H21         -0.5190     0.0080     3.3560 ha         1 DF1       0.142000
     32 H10         -0.7700     2.1750     2.4030 hn         1 DF1       0.467800
     33 H111        -1.8160     3.8610     4.4640 h1         1 DF1       0.060700
     34 H112        -1.8240     4.7460     2.9320 h1         1 DF1       0.060700
     35 H12          0.5890     4.2810     2.6530 h1         1 DF1       0.036700
     36 H141        -0.2100     6.3120     3.8960 hc         1 DF1       0.046033
     37 H142         1.3960     5.7690     4.4020 hc         1 DF1       0.046033
     38 H143        -0.0160     5.4120     5.4070 hc         1 DF1       0.046033
     39 H13          1.6370     3.3600     4.5570 ho         1 DF1       0.404000
     40 H2          -5.9650     3.0700     3.0050 h5         1 DF1       0.056100
     41 H9          -5.1100    -1.1140     0.5870 hn         1 DF1       0.308700
     42 H22         -3.5430    -1.6610    -1.8800 ha         1 DF1       0.139500
     43 H23         -2.7970    -3.6980    -3.0460 ha         1 DF1       0.133000
     44 H24         -1.4040    -5.3540    -1.8720 ha         1 DF1       0.131000
     45 H25         -0.7420    -4.9830     0.4720 ha         1 DF1       0.133000
     46 H26         -1.4750    -2.9510     1.6560 ha         1 DF1       0.139500
@<TRIPOS>BOND
     1     1     2 ar
     2     1     6 ar
     3     1    27 1
     4     2     3 ar
     5     2    28 1
     6     3     4 ar
     7     3    29 1
     8     4     5 ar
     9     4    30 1
    10     5     6 ar
    11     5    31 1
    12     6     7 1
    13     7     8 1
    14     7    20 2
    15     8     9 ar
    16     8    18 ar
    17     9    10 1
    18     9    15 ar
    19    10    11 1
    20    10    32 1
    21    11    12 1
    22    11    33 1
    23    11    34 1
    24    12    13 1
    25    12    14 1
    26    12    35 1
    27    13    36 1
    28    13    37 1
    29    13    38 1
    30    14    39 1
    31    15    16 ar
    32    16    17 ar
    33    16    40 1
    34    17    18 ar
    35    18    19 1
    36    19    20 1
    37    19    41 1
    38    20    21 1
    39    21    22 ar
    40    21    26 ar
    41    22    23 ar
    42    22    42 1
    43    23    24 ar
    44    23    43 1
    45    24    25 ar
    46    24    44 1
    47    25    26 ar
    48    25    45 1
    49    26    46 1
@<TRIPOS>SUBSTRUCTURE
     1 DF1         1 TEMP              0 ****  ****    0 ROOT
