@<TRIPOS>MOLECULE
DF2
   47    50     1     0     0
SMALL
bcc


@<TRIPOS>ATOM
      1 C2           0.0000     0.0000     0.0000 ca         1 DF2       0.696900
      2 C10          3.2830     0.0000     2.9590 cc         1 DF2      -0.209300
      3 C11          4.5850     0.0020     3.5880 ca         1 DF2      -0.035800
      4 C12          5.2110    -1.2070     3.8900 ca         1 DF2      -0.079500
      5 C13          6.4670    -1.2050     4.4970 ca         1 DF2      -0.103500
      6 C14          7.0940     0.0030     4.8000 ca         1 DF2      -0.092000
      7 C15          6.4650     1.2110     4.4960 ca         1 DF2      -0.103500
      8 C16          5.2080     1.2100     3.8910 ca         1 DF2      -0.079500
      9 C19          1.6550    -1.2060     5.6080 ca         1 DF2      -0.092500
     10 C20          1.4200    -1.2040     6.9830 ca         1 DF2      -0.102000
     11 C21          1.3030     0.0050     7.6690 ca         1 DF2      -0.097000
     12 C22          1.4220     1.2120     6.9800 ca         1 DF2      -0.102000
     13 N1           1.3490     0.0000     0.0000 nb         1 DF2      -0.700000
     14 C26         -2.8270     1.2470     5.5510 c3         1 DF2       0.210400
     15 C6           1.8310     0.0000     1.2550 ca         1 DF2       0.270800
     16 C5           1.0890    -0.0010     2.4290 ca         1 DF2      -0.361400
     17 O27         -3.4840     1.1860     6.8140 oh         1 DF2      -0.579800
     18 C4          -0.3110    -0.0010     2.3090 ca         1 DF2       0.605200
     19 N3          -0.8460    -0.0000     1.0540 nb         1 DF2      -0.768000
     20 N90          3.1590    -0.0000     1.5930 na         1 DF2       0.280900
     21 C17          1.6580     1.2100     5.6050 ca         1 DF2      -0.092500
     22 C1           2.0150    -0.0000     3.5030 cd         1 DF2      -0.037400
     23 C18          1.7740     0.0010     4.9200 ca         1 DF2      -0.022800
     24 C23         -3.2140     0.0200     4.7330 c3         1 DF2       0.164100
     25 C8          -2.5830    -0.0020     3.3410 c3         1 DF2       0.143800
     26 O24         -2.8250    -1.1490     5.4560 oh         1 DF2      -0.577800
     27 H2          -0.4690     0.0000    -0.9770 h5         1 DF2      -0.021900
     28 H12          4.7230    -2.1450     3.6540 ha         1 DF2       0.109500
     29 H13          6.9560    -2.1430     4.7320 ha         1 DF2       0.105000
     30 H14          8.0700     0.0040     5.2710 ha         1 DF2       0.103000
     31 H15          6.9510     2.1490     4.7320 ha         1 DF2       0.105000
     32 H16          4.7190     2.1470     3.6550 ha         1 DF2       0.109500
     33 H19          1.7460    -2.1450     5.0750 ha         1 DF2       0.108000
     34 H20          1.3270    -2.1410     7.5180 ha         1 DF2       0.102500
     35 H21          1.1200     0.0060     8.7370 ha         1 DF2       0.103000
     36 H22          1.3320     2.1510     7.5120 ha         1 DF2       0.102500
     37 H262        -1.7550     1.2880     5.7010 h1         1 DF2      -0.002800
     38 H27         -3.6600     2.0610     7.1190 ho         1 DF2       0.388000
     39 H90          3.9210    -0.0000     0.9440 hn         1 DF2       0.127700
     40 H17          1.7500     2.1470     5.0690 ha         1 DF2       0.108000
     41 H23         -4.2920     0.0100     4.6200 h1         1 DF2       0.011700
     42 H8C1        -2.9100    -0.8920     2.8170 h1         1 DF2       0.029700
     43 H8C2        -2.9080     0.8730     2.7900 h1         1 DF2       0.029700
     44 H24         -3.5550    -1.7420     5.5120 ho         1 DF2       0.396000
     45 N9          -1.1400    -0.0020     3.4190 nu         1 DF2      -0.459900
     46 H261        -3.1310     2.1450     5.0260 h1         1 DF2      -0.002800
     47 HN1         -0.7160    -0.0040     4.3260 hn         1 DF2       0.312800
@<TRIPOS>BOND
     1     1    13 ar  
     2     1    19 ar  
     3     1    27 1   
     4     2     3 1   
     5     2    20 1   
     6     2    22 2   
     7     3     4 ar  
     8     3     8 ar  
     9     4     5 ar  
    10     4    28 1   
    11     5     6 ar  
    12     5    29 1   
    13     6     7 ar  
    14     6    30 1   
    15     7     8 ar  
    16     7    31 1   
    17     8    32 1   
    18     9    10 ar  
    19     9    23 ar  
    20     9    33 1   
    21    10    11 ar  
    22    10    34 1   
    23    11    12 ar  
    24    11    35 1   
    25    12    21 ar  
    26    12    36 1   
    27    13    15 ar  
    28    14    17 1   
    29    14    24 1   
    30    14    37 1   
    31    14    46 1   
    32    15    16 ar  
    33    15    20 1   
    34    16    18 ar  
    35    16    22 1   
    36    17    38 1   
    37    18    19 ar  
    38    18    45 1   
    39    20    39 1   
    40    21    23 ar  
    41    21    40 1   
    42    22    23 1   
    43    24    25 1   
    44    24    26 1   
    45    24    41 1   
    46    25    42 1   
    47    25    43 1   
    48    25    45 1   
    49    26    44 1   
    50    45    47 1   
@<TRIPOS>SUBSTRUCTURE
     1 DF2         1 TEMP              0 ****  ****    0 ROOT
