@<TRIPOS>MOLECULE
molecule
   63    67     1     0     0
SMALL
bcc


@<TRIPOS>ATOM
      1 OAA          0.0000     0.0000     0.0000 o          1 DF3      -0.570100
      2 OAB          6.9410    -3.6510     6.6370 o          1 DF3      -0.578100
      3 FAC         11.7240    -5.6680     7.4190 f          1 DF3      -0.220633
      4 FAD         10.9310    -5.4940     9.5540 f          1 DF3      -0.220633
      5 FAE         12.9130    -4.5090     8.9880 f          1 DF3      -0.220633
      6 CAF         11.0760    -1.2600     7.4840 ca         1 DF3      -0.137000
      7 CAG          0.0960    -0.0410     7.5000 ca         1 DF3      -0.156000
      8 CAH          1.2550    -0.0460     8.2650 ca         1 DF3      -0.100000
      9 CAI          9.7440    -1.2670     7.1260 ca         1 DF3      -0.080000
     10 CAJ         11.6640    -2.4030     7.9970 ca         1 DF3      -0.067000
     11 CAK         -0.0550     0.5030    -2.5130 ca         1 DF3      -0.126000
     12 CAL         -0.7410     0.4110    -3.7090 ca         1 DF3      -0.108000
     13 CAM          0.1640    -0.0260     6.1360 ca         1 DF3      -0.068000
     14 CAN          2.4940    -0.0300     7.6610 ca         1 DF3      -0.149000
     15 CAO          1.7420    -0.7970    -3.4440 ca         1 DF3      -0.156000
     16 CAP          9.5880    -3.5800     7.8020 ca         1 DF3      -0.033000
     17 CAQ          3.1830    -0.0010     4.1010 cc         1 DF3      -0.119100
     18 CAR          5.5170    -1.4390     6.0420 c3         1 DF3       0.084000
     19 CAS         -0.1390    -0.7430    -7.1110 c3         1 DF3       0.099400
     20 CAT          0.7390    -1.9480    -6.7480 c3         1 DF3       0.100400
     21 CAU          5.0600    -0.0020     5.7850 c3         1 DF3       0.036300
     22 CAV          1.9670     0.0000     1.3040 c3         1 DF3      -0.111300
     23 NAW          6.9300    -1.4390     6.4310 ns         1 DF3      -0.590900
     24 NAX          1.8860    -0.0010    -1.1670 ns         1 DF3      -0.473100
     25 OAY         -0.8830    -0.3650    -5.9470 os         1 DF3      -0.320900
     26 OAZ          1.6160    -1.5600    -5.6850 os         1 DF3      -0.323900
     27 SBA          0.7890     0.0010     2.6840 ss         1 DF3      -0.136700
     28 CBB          1.2130     0.0000     0.0000 c          1 DF3       0.677100
     29 CBC          7.5520    -2.6020     6.7080 c          1 DF3       0.678700
     30 CBD          1.1890    -0.0990    -2.3780 ca         1 DF3       0.048600
     31 CBE          8.9880    -2.4300     7.2830 ca         1 DF3      -0.149600
     32 CBF         10.9210    -3.5590     8.1550 ca         1 DF3      -0.186300
     33 CBG         -0.1900    -0.2820    -4.7770 ca         1 DF3       0.051100
     34 CBH          1.0560    -0.8830    -4.6460 ca         1 DF3       0.078100
     35 CBI          1.8370     0.0000     4.1010 cd         1 DF3      -0.034600
     36 CBJ          1.4090    -0.0160     5.5050 ca         1 DF3      -0.076800
     37 CBK          2.5860    -0.0100     6.2730 ca         1 DF3      -0.024200
     38 NBL          3.6470    -0.0010     5.3970 na         1 DF3      -0.071400
     39 CBM         11.6300    -4.8330     8.5380 c3         1 DF3       0.675200
     40 HAF         11.6630    -0.3580     7.3620 ha         1 DF3       0.144000
     41 HAG         -0.8710    -0.0530     7.9900 ha         1 DF3       0.133000
     42 HAH          1.1850    -0.0580     9.3460 ha         1 DF3       0.132000
     43 HAI          9.2850    -0.3720     6.7240 ha         1 DF3       0.128000
     44 HAJ         12.7110    -2.3920     8.2760 ha         1 DF3       0.155000
     45 HAK         -0.4860     1.0470    -1.6820 ha         1 DF3       0.172000
     46 HAL         -1.7120     0.8810    -3.8130 ha         1 DF3       0.151000
     47 HAM         -0.7450    -0.0220     5.5470 ha         1 DF3       0.140000
     48 HAN          3.3930    -0.0350     8.2660 ha         1 DF3       0.126000
     49 HAO          2.7120    -1.2660    -3.3380 ha         1 DF3       0.144000
     50 HAP          9.0070    -4.4860     7.9260 ha         1 DF3       0.171000
     51 HAQ          3.8070    -0.0020     3.2150 h4         1 DF3       0.161000
     52 HAR          4.9230    -1.8700     6.8390 h1         1 DF3       0.069200
     53 HARA         5.3910    -2.0250     5.1400 h1         1 DF3       0.069200
     54 HAS          0.4880     0.0820    -7.4260 h1         1 DF3       0.067200
     55 HASA        -0.8220    -1.0160    -7.9070 h1         1 DF3       0.067200
     56 HAT          0.1130    -2.7690    -6.4220 h1         1 DF3       0.068700
     57 HATA         1.3220    -2.2460    -7.6110 h1         1 DF3       0.068700
     58 HAU          5.1870     0.5850     6.6870 h1         1 DF3       0.060200
     59 HAUA         5.6540     0.4290     4.9880 h1         1 DF3       0.060200
     60 HAV          2.5900     0.8840     1.3610 h1         1 DF3       0.077200
     61 HAVA         2.5900    -0.8850     1.3620 h1         1 DF3       0.077200
     62 HNAW         7.4400    -0.5780     6.4630 hn         1 DF3       0.313500
     63 HNAX         2.8830     0.0870    -1.1700 hn         1 DF3       0.323500
@<TRIPOS>BOND
     1     1    28 2
     2     2    29 2
     3    39     3 1
     4    39     4 1
     5     5    39 1
     6     6     9 ar
     7     6    10 ar
     8     6    40 1
     9    13     7 ar
    10     7     8 ar
    11     7    41 1
    12     8    14 ar
    13     8    42 1
    14     9    31 ar
    15     9    43 1
    16    10    32 ar
    17    10    44 1
    18    12    11 ar
    19    11    30 ar
    20    11    45 1
    21    12    33 ar
    22    12    46 1
    23    13    36 ar
    24    13    47 1
    25    37    14 ar
    26    14    48 1
    27    30    15 ar
    28    34    15 ar
    29    15    49 1
    30    31    16 ar
    31    32    16 ar
    32    16    50 1
    33    35    17 2
    34    17    38 1
    35    17    51 1
    36    23    18 1
    37    21    18 1
    38    18    52 1
    39    18    53 1
    40    25    19 1
    41    19    20 1
    42    19    54 1
    43    19    55 1
    44    20    26 1
    45    20    56 1
    46    20    57 1
    47    38    21 1
    48    21    58 1
    49    21    59 1
    50    28    22 1
    51    22    27 1
    52    22    60 1
    53    22    61 1
    54    29    23 1
    55    23    62 1
    56    28    24 1
    57    30    24 1
    58    24    63 1
    59    25    33 1
    60    34    26 1
    61    27    35 1
    62    31    29 1
    63    32    39 1
    64    33    34 ar
    65    35    36 1
    66    36    37 ar
    67    37    38 1
@<TRIPOS>SUBSTRUCTURE
     1 DF3         1 TEMP              0 ****  ****    0 ROOT
