@<TRIPOS>MOLECULE
DF4
   38    37     1     0     0
SMALL
bcc


@<TRIPOS>ATOM
      1 C7          1.2690    0.0420    0.2500 c3        1 DF4      0.024000
      2 C5          3.6720    0.4930    1.0130 c3        1 DF4     -0.139000
      3 C2          3.1890    3.1050    0.2920 c1        1 DF4      0.094000
      4 C1          0.7620   -3.0540    3.1220 c1        1 DF4      0.453000
      5 C3          4.4600    2.8840    1.0920 c3        1 DF4     -0.056000
      6 C4          4.5010    1.5160    1.8320 c3        1 DF4     -0.028000
      7 C6          2.2200    0.9980    0.9800 c3        1 DF4     -0.120000
      8 O1A        -0.1270   -3.6850    3.5750 o         1 DF4     -0.225000
      9 O1B         1.6660   -2.4140    2.6600 o         1 DF4     -0.225000
     10 O4          5.8030    1.0220    2.0300 oh        1 DF4     -0.334000
     11 F1          5.5790    3.0140    0.2870 f         1 DF4     -0.118000
     12 O6          2.2260    2.2760    0.2580 os        1 DF4     -0.061000
     13 C8         -0.0710    0.7340   -0.0440 c3        1 DF4      0.010000
     14 C9         -0.9960   -0.1920   -0.8440 c3        1 DF4     -0.051000
     15 O9         -2.2050    0.5300   -0.9930 oh        1 DF4     -0.332000
     16 O8         -0.6280    1.0260    1.2280 oh        1 DF4     -0.343000
     17 O7          1.8960   -0.4940   -0.8940 oh        1 DF4     -0.340000
     18 N5          3.7860   -0.9010    1.5320 n4        1 DF4     -0.096000
     19 C10         5.2170   -1.4250    1.4590 c2        1 DF4      0.292000
     20 O10         5.7480   -1.3650    0.3630 o         1 DF4     -0.176000
     21 C11         5.7760   -1.9370    2.7400 c3        1 DF4     -0.251000
     22 H1          1.0720   -0.8490    0.9200 h1        1 DF4      0.125000
     23 H2          4.0710    0.4610   -0.0520 hx        1 DF4      0.180000
     24 H4          4.4900    3.7090    1.8710 h1        1 DF4      0.170000
     25 H5          4.0610    1.6310    2.8640 h1        1 DF4      0.141000
     26 H6          1.8080    1.2150    2.0030 h1        1 DF4      0.156000
     27 H8          6.3920    1.3750    1.3430 ho        1 DF4      0.256000
     28 H9          0.0950    1.6910   -0.6150 h1        1 DF4      0.123000
     29 H10        -1.1800   -1.1450   -0.2820 h1        1 DF4      0.081500
     30 H11        -0.5420   -0.4250   -1.8430 h1        1 DF4      0.081500
     31 H12        -2.8020   -0.0190   -1.5170 ho        1 DF4      0.228000
     32 H13        -1.5200    1.3700    1.0680 ho        1 DF4      0.250000
     33 H14         1.7790    0.1270   -1.6270 ho        1 DF4      0.238000
     34 H15         3.1780   -1.5030    0.9520 hn        1 DF4      0.265500
     35 H16         6.0980   -1.0600    3.3650 hc        1 DF4      0.154333
     36 H17         5.0420   -2.5560    3.3110 hc        1 DF4      0.154333
     37 H18         6.6800   -2.5610    2.5090 hc        1 DF4      0.154333
     38 H52         3.4490   -0.9430    2.5000 hn        1 DF4      0.265500
@<TRIPOS>BOND
     1    1    7 1   
     2    1   13 1   
     3    1   17 1   
     4    1   22 1   
     5    2    6 1   
     6    2    7 1   
     7    2   18 1   
     8    2   23 1   
     9    3    5 1   
    10    3   12 1   
    11    4    8 1   
    12    4    9 1   
    13    5    6 1   
    14    5   11 1   
    15    5   24 1   
    16    6   10 1   
    17    6   25 1   
    18    7   12 1   
    19    7   26 1   
    20   10   27 1   
    21   13   14 1   
    22   13   16 1   
    23   13   28 1   
    24   14   15 1   
    25   14   29 1   
    26   14   30 1   
    27   15   31 1   
    28   16   32 1   
    29   17   33 1   
    30   18   19 1   
    31   18   34 1   
    32   18   38 1   
    33   19   20 1   
    34   19   21 1   
    35   21   35 1   
    36   21   36 1   
    37   21   37 1   
@<TRIPOS>SUBSTRUCTURE
     1 DF4         1 TEMP              0 ****  ****    0 ROOT
