@<TRIPOS>MOLECULE
molecule
   40    42     1     0     0
SMALL
bcc


@<TRIPOS>ATOM
      1 O2           0.0000     0.0000     0.0000 o          1 DF5      -0.491800
      2 S            1.4210     0.0000     0.0000 sy         1 DF5       1.236200
      3 O1           2.1990     0.0000     1.1900 o          1 DF5      -0.491800
      4 N1           1.8900    -1.3330    -0.8650 nz         1 DF5      -0.810500
      5 C2           1.9190     1.4190    -0.9200 ca         1 DF5      -0.313500
      6 C1           1.0580     1.9730    -1.8500 ca         1 DF5      -0.025000
      7 C3           3.1670     1.9770    -0.7030 ca         1 DF5      -0.025000
      8 C4           3.5620     3.0880    -1.4190 ca         1 DF5      -0.077500
      9 C5           2.7000     3.6490    -2.3630 ca         1 DF5      -0.098600
     10 C            1.4400     3.0840    -2.5720 ca         1 DF5      -0.077500
     11 C6           3.1170     4.8410    -3.1340 c          1 DF5       0.535500
     12 O            2.3280     5.3900    -3.8770 o          1 DF5      -0.396100
     13 N            4.3870     5.3230    -3.0090 n          1 DF5       0.029800
     14 C10          5.4020     4.6830    -3.6240 ca         1 DF5      -0.011300
     15 C15          5.1710     3.5300    -4.3860 ca         1 DF5      -0.185000
     16 C14          6.2110     2.8980    -4.9980 ca         1 DF5      -0.125000
     17 C13          7.5160     3.3810    -4.8800 ca         1 DF5       0.185100
     18 O3           8.5340     2.7310    -5.5010 os         1 DF5      -0.289900
     19 C16          8.1960     1.5650    -6.2550 c3         1 DF5       0.121700
     20 C12          7.7780     4.5120    -4.1390 ca         1 DF5      -0.111000
     21 C11          6.7230     5.1790    -3.4990 ca         1 DF5      -0.040000
     22 C9           6.9490     6.3380    -2.7310 ca         1 DF5       0.052000
     23 C8           5.8760     6.9410    -2.1320 ca         1 DF5      -0.179000
     24 C7           4.6020     6.4140    -2.2930 ca         1 DF5       0.040700
     25 H1           2.8760    -1.2910    -1.0340 hn         1 DF5       0.497467
     26 H2           1.6750    -2.1600    -0.3450 hn         1 DF5       0.497467
     27 H3           0.0810     1.5340    -2.0110 ha         1 DF5       0.177000
     28 H4           3.8340     1.5410     0.0290 ha         1 DF5       0.177000
     29 H5           4.5400     3.5230    -1.2500 ha         1 DF5       0.177000
     30 H6           0.7660     3.5160    -3.3020 ha         1 DF5       0.177000
     31 H7           4.3100     3.3060    -5.0030 ha         1 DF5       0.176000
     32 H8           5.7600     2.0650    -5.5240 ha         1 DF5       0.173000
     33 H9           7.5220     1.8370    -7.0590 h1         1 DF5       0.061033
     34 H10          9.0970     1.1300    -6.6710 h1         1 DF5       0.061033
     35 H11          7.7120     0.8430    -5.6080 h1         1 DF5       0.061033
     36 H12          8.8090     4.8440    -4.1090 ha         1 DF5       0.198000
     37 H13          7.9480     6.7390    -2.6140 ha         1 DF5       0.198000
     38 H14          6.0200     7.8370    -1.5390 ha         1 DF5       0.207000
     39 H15          3.7640     6.9040    -1.8120 h4         1 DF5       0.212000
     40 H131         1.3960    -1.3560    -1.7350 hn         1 DF5       0.497467
@<TRIPOS>BOND
     1    19    18 1
     2    18    17 1
     3    16    17 ar
     4    16    15 ar
     5    17    20 ar
     6    15    14 ar
     7    20    21 ar
     8    14    21 ar
     9    14    13 2
    10    21    22 ar
    11    12    11 2
    12    13    11 1
    13    13    24 1
    14    11     9 1
    15    22    23 ar
    16     9    10 ar
    17     9     8 ar
    18    24    23 ar
    19    10     6 ar
    20     8     7 ar
    21     6     5 ar
    22     7     5 ar
    23     5     2 1
    24     4     2 1
    25     1     2 2
    26     2     3 2
    27     4    25 1
    28     4    26 1
    29     6    27 1
    30     7    28 1
    31     8    29 1
    32    10    30 1
    33    15    31 1
    34    16    32 1
    35    19    33 1
    36    19    34 1
    37    19    35 1
    38    20    36 1
    39    22    37 1
    40    23    38 1
    41    24    39 1
    42    40     4 1
@<TRIPOS>SUBSTRUCTURE
     1 DF5         1 TEMP              0 ****  ****    0 ROOT
