@<TRIPOS>MOLECULE
DF5
   40    42     1     0     0
SMALL
bcc


@<TRIPOS>ATOM
      1 O2           0.0000     0.0000     0.0000 o          1 DF5      -0.475300
      2 S            1.4210     0.0000     0.0000 sy         1 DF5       0.946200
      3 O1           2.1990     0.0000     1.1900 o          1 DF5      -0.475300
      4 N1           1.8900    -1.3330    -0.8650 nz         1 DF5      -0.129500
      5 C2           1.9190     1.4190    -0.9200 ca         1 DF5      -0.197500
      6 C1           1.0580     1.9730    -1.8500 ca         1 DF5       0.021000
      7 C3           3.1670     1.9770    -0.7030 ca         1 DF5       0.021000
      8 C4           3.5620     3.0880    -1.4190 ca         1 DF5      -0.052000
      9 C5           2.7000     3.6490    -2.3630 ca         1 DF5      -0.116600
     10 C            1.4400     3.0840    -2.5720 ca         1 DF5      -0.052000
     11 C6           3.1170     4.8410    -3.1340 c          1 DF5       0.416500
     12 O            2.3280     5.3900    -3.8770 o          1 DF5      -0.414100
     13 N            4.3870     5.3230    -3.0090 n          1 DF5       0.608800
     14 C10          5.4020     4.6830    -3.6240 ca         1 DF5      -0.218300
     15 C15          5.1710     3.5300    -4.3860 ca         1 DF5      -0.160000
     16 C14          6.2110     2.8980    -4.9980 ca         1 DF5      -0.101000
     17 C13          7.5160     3.3810    -4.8800 ca         1 DF5       0.213100
     18 O3           8.5340     2.7310    -5.5010 os         1 DF5      -0.270900
     19 C16          8.1960     1.5650    -6.2550 c3         1 DF5       0.247700
     20 C12          7.7780     4.5120    -4.1390 ca         1 DF5      -0.094000
     21 C11          6.7230     5.1790    -3.4990 ca         1 DF5      -0.009000
     22 C9           6.9490     6.3380    -2.7310 ca         1 DF5       0.068000
     23 C8           5.8760     6.9410    -2.1320 ca         1 DF5      -0.112000
     24 C7           4.6020     6.4140    -2.2930 ca         1 DF5      -0.154300
     25 H1           2.8760    -1.2910    -1.0340 hn         1 DF5       0.317800
     26 H2           1.6750    -2.1600    -0.3450 hn         1 DF5       0.317800
     27 H3           0.0810     1.5340    -2.0110 ha         1 DF5       0.142500
     28 H4           3.8340     1.5410     0.0290 ha         1 DF5       0.142500
     29 H5           4.5400     3.5230    -1.2500 ha         1 DF5       0.138500
     30 H6           0.7660     3.5160    -3.3020 ha         1 DF5       0.138500
     31 H7           4.3100     3.3060    -5.0030 ha         1 DF5       0.149000
     32 H8           5.7600     2.0650    -5.5240 ha         1 DF5       0.143000
     33 H9           7.5220     1.8370    -7.0590 h1         1 DF5       0.012367
     34 H10          9.0970     1.1300    -6.6710 h1         1 DF5       0.012367
     35 H11          7.7120     0.8430    -5.6080 h1         1 DF5       0.012367
     36 H12          8.8090     4.8440    -4.1090 ha         1 DF5       0.161000
     37 H13          7.9480     6.7390    -2.6140 ha         1 DF5       0.152000
     38 H14          6.0200     7.8370    -1.5390 ha         1 DF5       0.164000
     39 H15          3.7640     6.9040    -1.8120 h4         1 DF5       0.170000
     40 H131         1.3960    -1.3560    -1.7350 hn         1 DF5       0.317800
@<TRIPOS>BOND
     1     1     2 2   
     2     2     3 2   
     3     2     4 1   
     4     2     5 1   
     5     4    25 1   
     6     4    26 1   
     7     4    40 1   
     8     5     6 ar  
     9     5     7 ar  
    10     6    10 ar  
    11     6    27 1   
    12     7     8 ar  
    13     7    28 1   
    14     8     9 ar  
    15     8    29 1   
    16     9    10 ar  
    17     9    11 1   
    18    10    30 1   
    19    11    12 2   
    20    11    13 1   
    21    13    14 1   
    22    13    24 2   
    23    14    15 ar  
    24    14    21 ar  
    25    15    16 ar  
    26    15    31 1   
    27    16    17 ar  
    28    16    32 1   
    29    17    18 1   
    30    17    20 ar  
    31    18    19 1   
    32    19    33 1   
    33    19    34 1   
    34    19    35 1   
    35    20    21 ar  
    36    20    36 1   
    37    21    22 ar  
    38    22    23 ar  
    39    22    37 1   
    40    23    24 ar  
    41    23    38 1   
    42    24    39 1   
@<TRIPOS>SUBSTRUCTURE
     1 DF5         1 TEMP              0 ****  ****    0 ROOT
