@<TRIPOS>MOLECULE
DF6
   57    60     1     0     0
SMALL
bcc


@<TRIPOS>ATOM
      1 C4           0.0000     0.0000     0.0000 ca         1 DF6      -0.259300
      2 C5           1.4050     0.0000     0.0000 ca         1 DF6       0.417600
      3 C7           3.4040    -0.0000     1.1660 ca         1 DF6       0.449200
      4 C8           4.1520     0.0010    -0.0040 ca         1 DF6      -0.348300
      5 C13          7.5840     1.3690    -2.4860 ca         1 DF6      -0.065000
      6 C21         14.0970    -1.3160    -3.2210 c3         1 DF6      -0.034100
      7 C22         14.7100    -2.5030    -3.9190 ca         1 DF6      -0.081300
      8 C24         15.6120    -4.7190    -3.8350 ca         1 DF6      -0.096000
      9 C26         15.5020    -3.5490    -5.9210 ca         1 DF6      -0.096000
     10 C28          7.6890    -0.9640    -1.9110 ca         1 DF6      -0.065000
     11 O20         12.0760    -2.4190    -3.7400 o          1 DF6      -0.460100
     12 C19         12.5960    -1.4530    -3.2240 c          1 DF6       0.495100
     13 C27         14.9400    -2.4610    -5.2820 ca         1 DF6      -0.081500
     14 C25         15.8360    -4.6790    -5.1980 ca         1 DF6      -0.094000
     15 C23         15.0500    -3.6310    -3.1950 ca         1 DF6      -0.081500
     16 N18         11.8310    -0.5030    -2.6510 ns         1 DF6      -0.051500
     17 C16         10.4890    -0.6260    -2.6530 cs         1 DF6       0.233400
     18 S17          9.7550    -1.9890    -3.3830 s          1 DF6      -0.591400
     19 C14          8.3290     0.2430    -2.1590 ca         1 DF6      -0.146400
     20 C12          6.2070     1.2880    -2.5600 ca         1 DF6      -0.117000
     21 C29          6.3120    -1.0440    -1.9900 ca         1 DF6      -0.117000
     22 C11          5.5680     0.0820    -2.3120 ca         1 DF6       0.114100
     23 C9           3.5090     0.0020    -1.2290 ca         1 DF6       0.191100
     24 N6           2.0920     0.0000     1.1490 nb         1 DF6      -0.609000
     25 C30          2.0960     0.0020    -1.2360 ca         1 DF6      -0.162300
     26 C31          1.3740     0.0020    -2.4390 ca         1 DF6      -0.169000
     27 C32          0.0100     0.0010    -2.4070 ca         1 DF6       0.128100
     28 O33         -0.6900     0.0020    -3.5730 os         1 DF6      -0.293900
     29 C34          0.0670     0.0030    -4.7840 c3         1 DF6       0.239700
     30 C3          -0.6780    -0.0050    -1.1850 ca         1 DF6       0.156100
     31 O2          -2.0370    -0.0050    -1.1790 os         1 DF6      -0.293900
     32 C1          -2.6800    -0.0120     0.0960 c3         1 DF6       0.239700
     33 H1          -0.5430    -0.0050     0.9370 ha         1 DF6       0.141000
     34 H2           3.9180    -0.0010     2.1200 h4         1 DF6      -0.025900
     35 H3           5.2350     0.0010     0.0420 ha         1 DF6       0.133000
     36 H4           8.0820     2.3110    -2.6800 ha         1 DF6       0.133000
     37 H5          14.3770    -0.4070    -3.7400 hc         1 DF6       0.029200
     38 H6          14.4540    -1.2740    -2.1990 hc         1 DF6       0.029200
     39 H7          15.8760    -5.6040    -3.2680 ha         1 DF6       0.103000
     40 H8          15.6800    -3.5170    -6.9890 ha         1 DF6       0.103000
     41 H9           8.2690    -1.8430    -1.6580 ha         1 DF6       0.133000
     42 H10         14.6780    -1.5760    -5.8480 ha         1 DF6       0.101500
     43 H11         16.2770    -5.5320    -5.6990 ha         1 DF6       0.102000
     44 H12         14.8740    -3.6620    -2.1270 ha         1 DF6       0.101500
     45 H13         12.2590     0.2940    -2.2240 hn         1 DF6       0.154500
     46 H14         10.1530     1.0810    -1.5840 hn         1 DF6       0.149500
     47 H15          5.6260     2.1670    -2.8130 ha         1 DF6       0.122500
     48 H16          5.8130    -1.9860    -1.7960 ha         1 DF6       0.122500
     49 H17          1.8940    -0.1100    -3.3830 ha         1 DF6       0.139000
     50 H18          0.6710    -0.8950    -4.8340 h1         1 DF6      -0.000633
     51 H19          0.7120     0.8740    -4.8060 h1         1 DF6      -0.000633
     52 H20         -0.6070     0.0320    -5.6320 h1         1 DF6      -0.000633
     53 H21         -2.3830    -0.8970     0.6460 h1         1 DF6       0.000033
     54 H22         -2.3900     0.8720     0.6520 h1         1 DF6       0.000033
     55 H23         -3.7540    -0.0160    -0.0410 h1         1 DF6       0.000033
     56 O10          4.2140     0.0020    -2.3880 os         1 DF6      -0.213200
     57 N15          9.7240     0.3250    -2.0800 ns         1 DF6       0.091900
@<TRIPOS>BOND
     1     1     2 ar  
     2     1    30 ar  
     3     1    33 1   
     4     2    24 ar  
     5     2    25 ar  
     6     3     4 ar  
     7     3    24 ar  
     8     3    34 1   
     9     4    23 ar  
    10     4    35 1   
    11     5    19 ar  
    12     5    20 ar  
    13     5    36 1   
    14     6     7 1   
    15     6    12 1   
    16     6    37 1   
    17     6    38 1   
    18     7    13 ar  
    19     7    15 ar  
    20     8    14 ar  
    21     8    15 ar  
    22     8    39 1   
    23     9    13 ar  
    24     9    14 ar  
    25     9    40 1   
    26    10    19 ar  
    27    10    21 ar  
    28    10    41 1   
    29    11    12 2   
    30    12    16 1   
    31    13    42 1   
    32    14    43 1   
    33    15    44 1   
    34    16    17 1   
    35    16    45 1   
    36    17    18 2   
    37    17    57 1   
    38    19    57 1   
    39    20    22 ar  
    40    20    47 1   
    41    21    22 ar  
    42    21    48 1   
    43    22    56 1   
    44    23    25 ar  
    45    23    56 1   
    46    25    26 ar  
    47    26    27 ar  
    48    26    49 1   
    49    27    28 1   
    50    27    30 ar  
    51    28    29 1   
    52    29    50 1   
    53    29    51 1   
    54    29    52 1   
    55    30    31 1   
    56    31    32 1   
    57    32    53 1   
    58    32    54 1   
    59    32    55 1   
    60    46    57 1   
@<TRIPOS>SUBSTRUCTURE
     1 DF6         1 TEMP              0 ****  ****    0 ROOT
