@<TRIPOS>MOLECULE
molecule
   57    60     1     0     0
SMALL
bcc


@<TRIPOS>ATOM
      1 C4           0.0000     0.0000     0.0000 ca         1 DF6      -0.264300
      2 C5           1.4050     0.0000     0.0000 ca         1 DF6       0.456600
      3 C7           3.4040    -0.0000     1.1660 ca         1 DF6       0.461200
      4 C8           4.1520     0.0010    -0.0040 ca         1 DF6      -0.357300
      5 C13          7.5840     1.3690    -2.4860 ca         1 DF6      -0.102500
      6 C21         14.0970    -1.3160    -3.2210 c3         1 DF6      -0.106100
      7 C22         14.7100    -2.5030    -3.9190 ca         1 DF6      -0.077300
      8 C24         15.6120    -4.7190    -3.8350 ca         1 DF6      -0.124000
      9 C26         15.5020    -3.5490    -5.9210 ca         1 DF6      -0.124000
     10 C28          7.6890    -0.9640    -1.9110 ca         1 DF6      -0.102500
     11 O20         12.0760    -2.4190    -3.7400 o          1 DF6      -0.450100
     12 C19         12.5960    -1.4530    -3.2240 c          1 DF6       0.617100
     13 C27         14.9400    -2.4610    -5.2820 ca         1 DF6      -0.107000
     14 C25         15.8360    -4.6790    -5.1980 ca         1 DF6      -0.119000
     15 C23         15.0500    -3.6310    -3.1950 ca         1 DF6      -0.107000
     16 N18         11.8310    -0.5030    -2.6510 ns         1 DF6      -0.526500
     17 C16         10.4890    -0.6260    -2.6530 cs         1 DF6       0.557400
     18 S17          9.7550    -1.9890    -3.3830 s          1 DF6      -0.536400
     19 C14          8.3290     0.2430    -2.1590 ca         1 DF6       0.029600
     20 C12          6.2070     1.2880    -2.5600 ca         1 DF6      -0.135500
     21 C29          6.3120    -1.0440    -1.9900 ca         1 DF6      -0.135500
     22 C11          5.5680     0.0820    -2.3120 ca         1 DF6       0.100100
     23 C9           3.5090     0.0020    -1.2290 ca         1 DF6       0.184100
     24 N6           2.0920     0.0000     1.1490 nb         1 DF6      -0.711000
     25 C30          2.0960     0.0020    -1.2360 ca         1 DF6      -0.163300
     26 C31          1.3740     0.0020    -2.4390 ca         1 DF6      -0.176000
     27 C32          0.0100     0.0010    -2.4070 ca         1 DF6       0.122100
     28 O33         -0.6900     0.0020    -3.5730 os         1 DF6      -0.313900
     29 C34          0.0670     0.0030    -4.7840 c3         1 DF6       0.125700
     30 C3          -0.6780    -0.0050    -1.1850 ca         1 DF6       0.154100
     31 O2          -2.0370    -0.0050    -1.1790 os         1 DF6      -0.310900
     32 C1          -2.6800    -0.0120     0.0960 c3         1 DF6       0.124700
     33 H1          -0.5430    -0.0050     0.9370 ha         1 DF6       0.161000
     34 H2           3.9180    -0.0010     2.1200 h4         1 DF6       0.021100
     35 H3           5.2350     0.0010     0.0420 ha         1 DF6       0.148000
     36 H4           8.0820     2.3110    -2.6800 ha         1 DF6       0.157000
     37 H5          14.3770    -0.4070    -3.7400 hc         1 DF6       0.065200
     38 H6          14.4540    -1.2740    -2.1990 hc         1 DF6       0.065200
     39 H7          15.8760    -5.6040    -3.2680 ha         1 DF6       0.131500
     40 H8          15.6800    -3.5170    -6.9890 ha         1 DF6       0.131500
     41 H9           8.2690    -1.8430    -1.6580 ha         1 DF6       0.157000
     42 H10         14.6780    -1.5760    -5.8480 ha         1 DF6       0.128500
     43 H11         16.2770    -5.5320    -5.6990 ha         1 DF6       0.130000
     44 H12         14.8740    -3.6620    -2.1270 ha         1 DF6       0.128500
     45 H13         12.2590     0.2940    -2.2240 hn         1 DF6       0.313500
     46 H14         10.1530     1.0810    -1.5840 hn         1 DF6       0.316500
     47 H15          5.6260     2.1670    -2.8130 ha         1 DF6       0.152000
     48 H16          5.8130    -1.9860    -1.7960 ha         1 DF6       0.152000
     49 H17          1.8940    -0.1100    -3.3830 ha         1 DF6       0.158000
     50 H18          0.6710    -0.8950    -4.8340 h1         1 DF6       0.043033
     51 H19          0.7120     0.8740    -4.8060 h1         1 DF6       0.043033
     52 H20         -0.6070     0.0320    -5.6320 h1         1 DF6       0.043033
     53 H21         -2.3830    -0.8970     0.6460 h1         1 DF6       0.044367
     54 H22         -2.3900     0.8720     0.6520 h1         1 DF6       0.044367
     55 H23         -3.7540    -0.0160    -0.0410 h1         1 DF6       0.044367
     56 O10          4.2140     0.0020    -2.3880 os         1 DF6      -0.241200
     57 N15          9.7240     0.3250    -2.0800 ns         1 DF6      -0.422100
@<TRIPOS>BOND
     1    21    10 ar
     2    21    22 ar
     3    28    29 1
     4    28    27 1
     5    27    26 ar
     6    27    30 ar
     7    26    25 ar
     8    18    17 2
     9    56    23 1
    10    56    22 1
    11    31    30 1
    12    31    32 1
    13    30     1 ar
    14    10    19 ar
    15    25    23 ar
    16    25     2 ar
    17    23     4 ar
    18     1     2 ar
    19     2    24 ar
    20     4     3 ar
    21    22    20 ar
    22    24     3 ar
    23    19    57 1
    24    19     5 ar
    25    17    57 1
    26    17    16 1
    27    20     5 ar
    28    16    12 1
    29    12    11 2
    30    12     6 1
    31     6     7 1
    32     7    13 ar
    33     7    15 ar
    34    13     9 ar
    35    15     8 ar
    36     9    14 ar
    37     8    14 ar
    38     1    33 1
    39     3    34 1
    40     4    35 1
    41     5    36 1
    42     6    37 1
    43     6    38 1
    44     8    39 1
    45     9    40 1
    46    10    41 1
    47    13    42 1
    48    14    43 1
    49    15    44 1
    50    16    45 1
    51    57    46 1
    52    20    47 1
    53    21    48 1
    54    26    49 1
    55    29    50 1
    56    29    51 1
    57    29    52 1
    58    32    53 1
    59    32    54 1
    60    32    55 1
@<TRIPOS>SUBSTRUCTURE
     1 DF6         1 TEMP              0 ****  ****    0 ROOT
