@<TRIPOS>MOLECULE
DF8
   37    39     1     0     0
SMALL
bcc


@<TRIPOS>ATOM
      1 O3           0.0000     0.0000     0.0000 oh         1 DF8      -0.522800
      2 C4           1.2390     1.9010    -2.9150 ca         1 DF8       0.312800
      3 C5           1.9820     1.3360    -0.5580 c3         1 DF8       0.129800
      4 C6           3.1700     0.9790     1.3980 c3         1 DF8       0.143100
      5 N1           4.0520    -0.1400    -2.2060 nu         1 DF8      -0.533000
      6 C7           4.4520     0.2630     1.8270 c3         1 DF8       0.227400
      7 C8           1.9810     0.0000     1.4470 c3         1 DF8       0.136100
      8 N2           2.8140     0.7890    -4.0240 nc         1 DF8      -0.543100
      9 C9           1.4290     0.0000     0.0000 c3         1 DF8       0.132100
     10 N3           1.4680     1.7970    -6.5940 nv         1 DF8      -0.455500
     11 N4          -0.0310     2.8490    -5.1050 nb         1 DF8      -0.712000
     12 N            4.9470    -0.7620    -3.0290 nz         1 DF8       0.330600
     13 C            3.0250     0.6090    -2.7430 cd         1 DF8       0.248700
     14 O            3.2930     1.4340     0.0390 os         1 DF8      -0.411600
     15 C1           1.7210     1.5760    -4.1930 ca         1 DF8      -0.236200
     16 C2           1.0380     2.0850    -5.3090 ca         1 DF8       0.594200
     17 C3          -0.4460     3.1290    -3.8830 ca         1 DF8       0.729900
     18 N5           0.1650     2.6750    -2.8070 nb         1 DF8      -0.667000
     19 N6           2.0810     1.2830    -2.0190 na         1 DF8       0.246000
     20 O1           5.5260     1.2040     1.8900 oh         1 DF8      -0.578800
     21 O2           0.9870     0.4670     2.3610 oh         1 DF8      -0.534800
     22 H1          -0.3140    -0.8430    -0.2830 ho         1 DF8       0.397000
     23 H2           1.3590     2.1650    -0.2420 h2         1 DF8       0.103700
     24 H3           2.9780     1.8220     2.0500 h1         1 DF8       0.073700
     25 H4           4.1620    -0.1990    -1.2130 hn         1 DF8       0.394800
     26 H5           4.3060    -0.1850     2.8030 h1         1 DF8      -0.014800
     27 H6           4.6920    -0.5110     1.1080 h1         1 DF8      -0.014800
     28 H7           2.3210    -0.9920     1.7200 h1         1 DF8       0.012700
     29 H8           1.8220    -0.8400    -0.5600 h1         1 DF8      -0.002300
     30 H9           2.2740     1.2210    -6.7350 hn         1 DF8       0.279800
     31 H10          0.9730     2.1660    -7.3820 hn         1 DF8       0.279800
     32 H11          5.6080    -1.2730    -2.4780 hn         1 DF8       0.212467
     33 H12          4.4610    -1.3920    -3.6360 hn         1 DF8       0.212467
     34 H13         -1.3210     3.7560    -3.7600 h5         1 DF8       0.012100
     35 H14          6.2090     0.8650     2.4450 ho         1 DF8       0.404000
     36 H15          0.9160    -0.1360     3.0830 ho         1 DF8       0.402000
     37 HN3          5.4290    -0.0770    -3.5780 hn         1 DF8       0.212467
@<TRIPOS>BOND
     1     1     9 1   
     2     1    22 1   
     3     2    15 ar  
     4     2    18 ar  
     5     2    19 1   
     6     3     9 1   
     7     3    14 1   
     8     3    19 1   
     9     3    23 1   
    10     4     6 1   
    11     4     7 1   
    12     4    14 1   
    13     4    24 1   
    14     5    12 1   
    15     5    13 1   
    16     5    25 1   
    17     6    20 1   
    18     6    26 1   
    19     6    27 1   
    20     7     9 1   
    21     7    21 1   
    22     7    28 1   
    23     8    13 2   
    24     8    15 1   
    25     9    29 1   
    26    10    16 1   
    27    10    30 1   
    28    10    31 1   
    29    11    16 ar  
    30    11    17 ar  
    31    12    32 1   
    32    12    33 1   
    33    12    37 1   
    34    13    19 1   
    35    15    16 ar  
    36    17    18 ar  
    37    17    34 1   
    38    20    35 1   
    39    21    36 1   
@<TRIPOS>SUBSTRUCTURE
     1 DF8         1 TEMP              0 ****  ****    0 ROOT
