@<TRIPOS>MOLECULE
DF9
   49    52     1     0     0
SMALL
bcc


@<TRIPOS>ATOM
      1 N6           0.0000     0.0000     0.0000 nv         1 DF9      -0.657500
      2 C6           1.3850     0.0000     0.0000 ca         1 DF9       0.533200
      3 N1           2.0640     0.0000     1.1420 nb         1 DF9      -0.627000
      4 C2           3.3860    -0.0000     1.1570 ca         1 DF9       0.593900
      5 N3           4.1010     0.0000     0.0540 nb         1 DF9      -0.559000
      6 C5           2.1000    -0.0050    -1.2030 ca         1 DF9      -0.475800
      7 C4           3.5040     0.0010    -1.1400 ca         1 DF9       0.419100
      8 N7           1.7500    -0.0100    -2.5340 na         1 DF9       0.392600
      9 C8           2.8740    -0.0140    -3.3070 cc         1 DF9      -0.264100
     10 C9           3.9680     0.0010    -2.5230 cd         1 DF9      -0.260000
     11 C10          5.4020    -0.0000    -2.9870 c3         1 DF9       0.251000
     12 N1'          5.9420    -1.3640    -2.9090 n3         1 DF9      -0.526600
     13 C2'          5.3280    -2.2340    -3.9290 c3         1 DF9       0.115800
     14 C3'          6.4740    -2.8190    -4.7810 c3         1 DF9       0.170100
     15 O3'          6.2170    -4.1870    -5.1020 oh         1 DF9      -0.570800
     16 C1'          7.4070    -1.3660    -3.1090 c3         1 DF9       0.151800
     17 C4'          7.7030    -2.6970    -3.8440 c3         1 DF9      -0.045700
     18 C5'          9.0000    -2.6000    -4.6510 c3         1 DF9       0.089700
     19 S6'         10.4190    -2.6080    -3.5200 ss         1 DF9      -0.397200
     20 C7'         11.8370    -2.4890    -4.6440 c3         1 DF9       0.149000
     21 C21         13.1130    -2.4840    -3.8420 ca         1 DF9      -0.081300
     22 C26         13.7460    -3.6760    -3.5420 ca         1 DF9      -0.083500
     23 C25         14.9170    -3.6720    -2.8080 ca         1 DF9      -0.100000
     24 C24         15.4550    -2.4750    -2.3720 ca         1 DF9      -0.096000
     25 C23         14.8230    -1.2830    -2.6740 ca         1 DF9      -0.100000
     26 C22         13.6550    -1.2870    -3.4120 ca         1 DF9      -0.083500
     27 HN6         -0.5000     0.8670    -0.0040 hn         1 DF9       0.276300
     28 HN6A        -0.5000    -0.8660     0.0460 hn         1 DF9       0.276300
     29 H2           3.8980    -0.0000     2.1120 h5         1 DF9      -0.000900
     30 HN7          0.8120    -0.0190    -2.8820 hn         1 DF9       0.116700
     31 H8           2.8840    -0.0260    -4.3900 h4         1 DF9       0.143000
     32 H10          5.9870     0.6560    -2.3540 h1         1 DF9       0.011700
     33 H10A         5.4500     0.3490    -4.0120 h1         1 DF9       0.011700
     34 H2'          4.7820    -3.0370    -3.4460 h1         1 DF9       0.025700
     35 H2'A         4.6630    -1.6530    -4.5560 h1         1 DF9       0.025700
     36 H3'          6.6200    -2.2290    -5.6780 h1         1 DF9       0.001700
     37 HO3'         5.9070    -4.2490    -5.9900 ho         1 DF9       0.386000
     38 H1'          7.9170    -1.3430    -2.1530 h1         1 DF9       0.025700
     39 H1'A         7.7040    -0.5240    -3.7220 h1         1 DF9       0.025700
     40 H4'          7.7360    -3.5230    -3.1440 hc         1 DF9       0.073700
     41 H5'          9.0710    -3.4460    -5.3240 h1         1 DF9       0.033700
     42 H5'A         9.0010    -1.6820    -5.2240 h1         1 DF9       0.033700
     43 H7'         11.7680    -1.5730    -5.2180 h1         1 DF9       0.034200
     44 H7'A        11.8370    -3.3380    -5.3170 h1         1 DF9       0.034200
     45 H26         13.3240    -4.6130    -3.8830 ha         1 DF9       0.108500
     46 H25         15.4120    -4.6060    -2.5720 ha         1 DF9       0.103500
     47 H24         16.3720    -2.4710    -1.7950 ha         1 DF9       0.102000
     48 H23         15.2460    -0.3450    -2.3350 ha         1 DF9       0.103500
     49 H22         13.1600    -0.3520    -3.6490 ha         1 DF9       0.108500
@<TRIPOS>BOND
     1     1     2 1   
     2     1    27 1   
     3     1    28 1   
     4     2     3 ar  
     5     2     6 ar  
     6     3     4 ar  
     7     4     5 ar  
     8     4    29 1   
     9     5     7 ar  
    10     6     7 ar  
    11     6     8 1   
    12     7    10 1   
    13     8     9 1   
    14     8    30 1   
    15     9    10 2   
    16     9    31 1   
    17    10    11 1   
    18    11    12 1   
    19    11    32 1   
    20    11    33 1   
    21    12    13 1   
    22    12    16 1   
    23    13    14 1   
    24    13    34 1   
    25    13    35 1   
    26    14    15 1   
    27    14    17 1   
    28    14    36 1   
    29    15    37 1   
    30    16    17 1   
    31    16    38 1   
    32    16    39 1   
    33    17    18 1   
    34    17    40 1   
    35    18    19 1   
    36    18    41 1   
    37    18    42 1   
    38    19    20 1   
    39    20    21 1   
    40    20    43 1   
    41    20    44 1   
    42    21    22 ar  
    43    21    26 ar  
    44    22    23 ar  
    45    22    45 1   
    46    23    24 ar  
    47    23    46 1   
    48    24    25 ar  
    49    24    47 1   
    50    25    26 ar  
    51    25    48 1   
    52    26    49 1   
@<TRIPOS>SUBSTRUCTURE
     1 DF9         1 TEMP              0 ****  ****    0 ROOT
