@<TRIPOS>MOLECULE
DFA
   27    28     1     0     0
SMALL
bcc


@<TRIPOS>ATOM
      1 C8          0.1320    0.1460   -0.1390 c         1 DFA      0.929600
      2 O11         0.9370    1.0900   -0.3770 o         1 DFA     -0.828800
      3 C5          0.7930   -0.9800    4.5380 ca        1 DFA     -0.147000
      4 C4         -0.0440   -0.8710    3.4280 ca        1 DFA     -0.126500
      5 C3          0.2560    0.0250    2.3920 ca        1 DFA     -0.017300
      6 C2          1.4210    0.8000    2.4860 ca        1 DFA     -0.126500
      7 C1          2.2550    0.6890    3.5960 ca        1 DFA     -0.147000
      8 C6          1.9430   -0.1980    4.6270 ca        1 DFA     -0.159000
      9 C10        -1.5630    1.3130    1.3450 ca        1 DFA     -0.017300
     10 C16        -2.8790    1.1370    1.7950 ca        1 DFA     -0.126500
     11 C15        -3.7360    2.2280    1.9290 ca        1 DFA     -0.147000
     12 C14        -3.2910    3.5100    1.6140 ca        1 DFA     -0.159000
     13 C13        -1.9860    3.6940    1.1560 ca        1 DFA     -0.147000
     14 C12        -1.1270    2.6060    1.0200 ca        1 DFA     -0.126500
     15 C11        -0.6570    0.1310    1.2130 c3        1 DFA     -0.132100
     16 O1'        -0.0960   -0.8130   -0.9230 o         1 DFA     -0.828800
     17 H2          1.6720    1.4740    1.6450 ha        1 DFA      0.151500
     18 H1          3.1670    1.2990    3.6550 ha        1 DFA      0.109000
     19 H6          2.6020   -0.2830    5.5010 ha        1 DFA      0.105000
     20 H16        -3.2390    0.1270    2.0400 ha        1 DFA      0.151500
     21 H15        -4.7650    2.0750    2.2820 ha        1 DFA      0.109000
     22 H14        -3.9660    4.3700    1.7210 ha        1 DFA      0.105000
     23 H13        -1.6340    4.7020    0.8950 ha        1 DFA      0.109000
     24 H12        -0.1010    2.7310    0.6270 ha        1 DFA      0.151500
     25 H11        -1.2960   -0.8000    1.1770 hc        1 DFA      0.057700
     26 H5          0.5450   -1.6870    5.3420 ha        1 DFA      0.109000
     27 H4         -0.9470   -1.4960    3.3620 ha        1 DFA      0.151500
@<TRIPOS>BOND
     1    1    2 1   
     2    1   15 1   
     3    1   16 1   
     4    3    4 ar  
     5    3    8 ar  
     6    3   26 1   
     7    4    5 ar  
     8    4   27 1   
     9    5    6 ar  
    10    5   15 1   
    11    6    7 ar  
    12    6   17 1   
    13    7    8 ar  
    14    7   18 1   
    15    8   19 1   
    16    9   10 ar  
    17    9   14 ar  
    18    9   15 1   
    19   10   11 ar  
    20   10   20 1   
    21   11   12 ar  
    22   11   21 1   
    23   12   13 ar  
    24   12   22 1   
    25   13   14 ar  
    26   13   23 1   
    27   14   24 1   
    28   15   25 1   
@<TRIPOS>SUBSTRUCTURE
     1 DFA         1 TEMP              0 ****  ****    0 ROOT
