@<TRIPOS>MOLECULE
molecule
   27    28     1     0     0
SMALL
bcc


@<TRIPOS>ATOM
      1 C8           0.0000     0.0000     0.0000 c          1 DFA       0.894600
      2 O11          1.2070     0.0000     0.0000 o          1 DFA      -0.832300
      3 C5           1.0360    -0.9690     4.4820 ca         1 DFA      -0.142250
      4 C4           0.1380    -0.9690     3.4320 ca         1 DFA      -0.113500
      5 C3           0.2240    -0.0010     2.4490 ca         1 DFA      -0.011800
      6 C2           1.2120     0.9640     2.5140 ca         1 DFA      -0.113500
      7 C1           2.1070     0.9660     3.5680 ca         1 DFA      -0.142250
      8 C6           2.0200    -0.0020     4.5520 ca         1 DFA      -0.156500
      9 C10         -1.6200     1.2300     1.3830 ca         1 DFA      -0.011800
     10 C16         -2.9640     1.1110     1.6860 ca         1 DFA      -0.113500
     11 C15         -3.7580     2.2400     1.7600 ca         1 DFA      -0.142250
     12 C14         -3.2100     3.4870     1.5300 ca         1 DFA      -0.156500
     13 C13         -1.8660     3.6060     1.2270 ca         1 DFA      -0.142250
     14 C12         -1.0700     2.4780     1.1580 ca         1 DFA      -0.113500
     15 C11         -0.7540     0.0000     1.3040 c3         1 DFA      -0.104100
     16 O1'         -0.6710     0.0000    -1.1640 o          1 DFA      -0.832300
     17 H2           1.3110     1.6920     1.7180 ha         1 DFA       0.134000
     18 H1           2.8830     1.7210     3.6190 ha         1 DFA       0.107750
     19 H6           2.7220    -0.0010     5.3770 ha         1 DFA       0.103500
     20 H16         -3.3940     0.1330     1.8640 ha         1 DFA       0.134000
     21 H15         -4.8110     2.1460     1.9970 ha         1 DFA       0.107750
     22 H14         -3.8330     4.3710     1.5850 ha         1 DFA       0.103500
     23 H13         -1.4350     4.5840     1.0490 ha         1 DFA       0.107750
     24 H12         -0.0170     2.5710     0.9210 ha         1 DFA       0.134000
     25 H11         -1.3770    -0.8840     1.3610 hc         1 DFA       0.057700
     26 H5           0.9670    -1.7280     5.2520 ha         1 DFA       0.107750
     27 H4          -0.6250    -1.7350     3.3720 ha         1 DFA       0.134000
@<TRIPOS>BOND
     1     1     2 1
     2     1    15 1
     3     1    16 1
     4     3     4 ar
     5     3     8 ar
     6     3    26 1
     7     4     5 ar
     8     4    27 1
     9     5     6 ar
    10     5    15 1
    11     6     7 ar
    12     6    17 1
    13     7     8 ar
    14     7    18 1
    15     8    19 1
    16     9    10 ar
    17     9    14 ar
    18     9    15 1
    19    10    11 ar
    20    10    20 1
    21    11    12 ar
    22    11    21 1
    23    12    13 ar
    24    12    22 1
    25    13    14 ar
    26    13    23 1
    27    14    24 1
    28    15    25 1
@<TRIPOS>SUBSTRUCTURE
     1 DFA         1 TEMP              0 ****  ****    0 ROOT
