@<TRIPOS>MOLECULE
DFB
   16    16     1     0     0
SMALL
bcc


@<TRIPOS>ATOM
      1 O1         -0.0060   -0.0020   -0.0200 oh        1 DFB     -0.599800
      2 C7          1.4130   -0.0010   -0.0030 c3        1 DFB      0.176700
      3 C1          1.8910   -0.0000    1.4120 ca        1 DFB     -0.096300
      4 C2          3.2820   -0.0020    1.6500 ca        1 DFB      0.085900
      5 F2          4.1570   -0.0040    0.6180 f         1 DFB     -0.129900
      6 C6          1.0100    0.0010    2.4940 ca        1 DFB     -0.095000
      7 C5          1.4910    0.0010    3.8030 ca        1 DFB     -0.121000
      8 C4          2.8590    0.0000    4.0570 ca        1 DFB     -0.143000
      9 C3          3.7660   -0.0020    2.9850 ca        1 DFB      0.092900
     10 F3          5.0990   -0.0030    3.2170 f         1 DFB     -0.127900
     11 HO1        -0.2620   -0.0010   -0.9500 ho        1 DFB      0.409000
     12 HC71        1.8040   -0.9150   -0.5310 h1        1 DFB      0.043700
     13 HC72        1.8020    0.9150   -0.5300 h1        1 DFB      0.043700
     14 HC6        -0.0750    0.0020    2.2990 ha        1 DFB      0.165000
     15 HC5         0.7820    0.0030    4.6450 ha        1 DFB      0.144000
     16 HC4         3.2440    0.0000    5.0870 ha        1 DFB      0.153000
@<TRIPOS>BOND
     1    1    2 1   
     2    1   11 1   
     3    2    3 1   
     4    2   12 1   
     5    2   13 1   
     6    3    4 ar  
     7    3    6 ar  
     8    4    5 1   
     9    4    9 ar  
    10    6    7 ar  
    11    6   14 1   
    12    7    8 ar  
    13    7   15 1   
    14    8    9 ar  
    15    8   16 1   
    16    9   10 1   
@<TRIPOS>SUBSTRUCTURE
     1 DFB         1 TEMP              0 ****  ****    0 ROOT
