@<TRIPOS>MOLECULE
molecule
   16    16     1     0     0
SMALL
bcc


@<TRIPOS>ATOM
      1 O1           0.0000     0.0000     0.0000 oh         1 DFB      -0.612800
      2 C7           1.4280     0.0000     0.0000 c3         1 DFB       0.191700
      3 C1           1.9310     0.0000     1.4210 ca         1 DFB      -0.102300
      4 C2           3.2910    -0.0060     1.6720 ca         1 DFB       0.094900
      5 F2           4.1690    -0.0070     0.6450 f          1 DFB      -0.130900
      6 C6           1.0340     0.0010     2.4710 ca         1 DFB      -0.093000
      7 C5           1.4920     0.0010     3.7740 ca         1 DFB      -0.121000
      8 C4           2.8510     0.0010     4.0300 ca         1 DFB      -0.146000
      9 C3           3.7530    -0.0010     2.9800 ca         1 DFB       0.098900
     10 F3           5.0800    -0.0010     3.2300 f          1 DFB      -0.128900
     11 HO1         -0.3140    -0.0000    -0.8890 ho         1 DFB       0.410000
     12 HC71         1.7890     0.8850    -0.5110 h1         1 DFB       0.040700
     13 HC72         1.7890    -0.8850    -0.5110 h1         1 DFB       0.040700
     14 HC6         -0.0310     0.0010     2.2720 ha         1 DFB       0.164000
     15 HC5          0.7870     0.0020     4.5960 ha         1 DFB       0.142000
     16 HC4          3.2090     0.0030     5.0520 ha         1 DFB       0.151000
@<TRIPOS>BOND
     1     1     2 1
     2     1    11 1
     3     2     3 1
     4     2    12 1
     5     2    13 1
     6     3     4 ar
     7     3     6 ar
     8     4     5 1
     9     4     9 ar
    10     6     7 ar
    11     6    14 1
    12     7     8 ar
    13     7    15 1
    14     8     9 ar
    15     8    16 1
    16     9    10 1
@<TRIPOS>SUBSTRUCTURE
     1 DFB         1 TEMP              0 ****  ****    0 ROOT
