@<TRIPOS>MOLECULE
DFD
   35    34     1     0     0
SMALL
bcc


@<TRIPOS>ATOM
      1 C11         0.0070    0.0000    0.0100 c3        1 DFD     -0.093100
      2 C10         1.5130    0.0000    0.0300 c3        1 DFD     -0.080400
      3 C9          2.0500    0.0000    1.4460 c3        1 DFD     -0.079400
      4 C8          3.5630    0.0000    1.4610 c3        1 DFD     -0.079400
      5 C7          4.0980   -0.0000    2.8770 c3        1 DFD     -0.079400
      6 C6          5.6120   -0.0000    2.8920 c3        1 DFD     -0.079400
      7 C5          6.1460   -0.0010    4.3090 c3        1 DFD     -0.078400
      8 C4          7.6590   -0.0000    4.3240 c3        1 DFD     -0.078400
      9 C3          8.1870   -0.0010    5.7410 c3        1 DFD     -0.085400
     10 C2          9.7040    0.0000    5.7390 c3        1 DFD      0.131400
     11 O2         10.1100   -0.0020    7.1150 os        1 DFD     -0.429900
     12 C1         11.4650    0.0010    7.3240 c         1 DFD      0.619900
     13 O1         11.7800   -0.0010    8.5100 o         1 DFD     -0.486000
     14 H111       -0.3680    0.0000   -1.0420 hc        1 DFD      0.032700
     15 H112       -0.3950   -0.9050    0.5270 hc        1 DFD      0.032700
     16 H113       -0.3950    0.9050    0.5270 hc        1 DFD      0.032700
     17 H101        1.8980    0.9030   -0.5150 hc        1 DFD      0.038700
     18 H102        1.8970   -0.9020   -0.5150 hc        1 DFD      0.038700
     19 H91         1.6680    0.9030    1.9920 hc        1 DFD      0.039700
     20 H92         1.6680   -0.9020    1.9920 hc        1 DFD      0.039700
     21 H81         3.9450   -0.9020    0.9140 hc        1 DFD      0.039700
     22 H82         3.9450    0.9030    0.9150 hc        1 DFD      0.039700
     23 H71         3.7170   -0.9030    3.4230 hc        1 DFD      0.040700
     24 H72         3.7160    0.9020    3.4240 hc        1 DFD      0.040700
     25 H61         5.9930    0.9030    2.3460 hc        1 DFD      0.039700
     26 H62         5.9930   -0.9020    2.3460 hc        1 DFD      0.039700
     27 H51         5.7640    0.9020    4.8560 hc        1 DFD      0.043700
     28 H52         5.7650   -0.9040    4.8550 hc        1 DFD      0.043700
     29 H41         8.0400    0.9040    3.7780 hc        1 DFD      0.040700
     30 H42         8.0410   -0.9030    3.7770 hc        1 DFD      0.040700
     31 H31         7.8180   -0.9040    6.2940 hc        1 DFD      0.062700
     32 H32         7.8160    0.9000    6.2960 hc        1 DFD      0.062700
     33 H21        10.1090    0.9170    5.2350 h1        1 DFD      0.035700
     34 H22        10.1100   -0.9150    5.2320 h1        1 DFD      0.035700
     35 H1         12.1350    0.0050    6.4460 h5        1 DFD      0.037200
@<TRIPOS>BOND
     1    1    2 1   
     2    1   14 1   
     3    1   15 1   
     4    1   16 1   
     5    2    3 1   
     6    2   17 1   
     7    2   18 1   
     8    3    4 1   
     9    3   19 1   
    10    3   20 1   
    11    4    5 1   
    12    4   21 1   
    13    4   22 1   
    14    5    6 1   
    15    5   23 1   
    16    5   24 1   
    17    6    7 1   
    18    6   25 1   
    19    6   26 1   
    20    7    8 1   
    21    7   27 1   
    22    7   28 1   
    23    8    9 1   
    24    8   29 1   
    25    8   30 1   
    26    9   10 1   
    27    9   31 1   
    28    9   32 1   
    29   10   11 1   
    30   10   33 1   
    31   10   34 1   
    32   11   12 1   
    33   12   13 2   
    34   12   35 1   
@<TRIPOS>SUBSTRUCTURE
     1 DFD         1 TEMP              0 ****  ****    0 ROOT
