@<TRIPOS>MOLECULE
molecule
   35    34     1     0     0
SMALL
bcc


@<TRIPOS>ATOM
      1 C11          0.0000     0.0000     0.0000 c3         1 DFD      -0.092100
      2 C10          1.5300     0.0000     0.0000 c3         1 DFD      -0.084400
      3 C9           2.0390     0.0000     1.4430 c3         1 DFD      -0.081400
      4 C8           3.5690    -0.0000     1.4430 c3         1 DFD      -0.082400
      5 C7           4.0790    -0.0000     2.8850 c3         1 DFD      -0.081400
      6 C6           5.6100    -0.0000     2.8850 c3         1 DFD      -0.082400
      7 C5           6.1190    -0.0000     4.3280 c3         1 DFD      -0.079400
      8 C4           7.6490    -0.0000     4.3280 c3         1 DFD      -0.081400
      9 C3           8.1590    -0.0000     5.7700 c3         1 DFD      -0.083400
     10 C2           9.6890    -0.0000     5.7710 c3         1 DFD       0.144400
     11 O2          10.1730    -0.0000     7.1390 os         1 DFD      -0.429900
     12 C1          11.5040    -0.0000     7.3150 c          1 DFD       0.639900
     13 O1          11.9660    -0.0000     8.4320 o          1 DFD      -0.493000
     14 H111        -0.3610    -0.8850     0.5110 hc         1 DFD       0.032700
     15 H112        -0.3610     0.8850     0.5110 hc         1 DFD       0.032700
     16 H113        -0.3610    -0.0000    -1.0210 hc         1 DFD       0.032700
     17 H101         1.8910     0.8850    -0.5110 hc         1 DFD       0.039700
     18 H102         1.8910    -0.8850    -0.5110 hc         1 DFD       0.039700
     19 H91          1.6780    -0.8850     1.9530 hc         1 DFD       0.041700
     20 H92          1.6780     0.8850     1.9530 hc         1 DFD       0.041700
     21 H81          3.9300    -0.8840     0.9320 hc         1 DFD       0.040700
     22 H82          3.9300     0.8840     0.9320 hc         1 DFD       0.040700
     23 H71          3.7180    -0.8840     3.3950 hc         1 DFD       0.042700
     24 H72          3.7180     0.8840     3.3950 hc         1 DFD       0.042700
     25 H61          5.9710    -0.8850     2.3750 hc         1 DFD       0.041700
     26 H62          5.9710     0.8850     2.3750 hc         1 DFD       0.041700
     27 H51          5.7580     0.8850     4.8390 hc         1 DFD       0.045700
     28 H52          5.7580    -0.8850     4.8390 hc         1 DFD       0.045700
     29 H41          8.0100     0.8840     3.8170 hc         1 DFD       0.042700
     30 H42          8.0100    -0.8840     3.8170 hc         1 DFD       0.042700
     31 H31          7.7980     0.8840     6.2810 hc         1 DFD       0.059700
     32 H32          7.7980    -0.8840     6.2810 hc         1 DFD       0.059700
     33 H21         10.0510     0.8840     5.2600 h1         1 DFD       0.036700
     34 H22         10.0510    -0.8840     5.2600 h1         1 DFD       0.036700
     35 H1          12.1640    -0.0000     6.4560 h5         1 DFD       0.006200
@<TRIPOS>BOND
     1     1     2 1
     2     1    14 1
     3     1    15 1
     4     1    16 1
     5     2     3 1
     6     2    17 1
     7     2    18 1
     8     3     4 1
     9     3    19 1
    10     3    20 1
    11     4     5 1
    12     4    21 1
    13     4    22 1
    14     5     6 1
    15     5    23 1
    16     5    24 1
    17     6     7 1
    18     6    25 1
    19     6    26 1
    20     7     8 1
    21     7    27 1
    22     7    28 1
    23     8     9 1
    24     8    29 1
    25     8    30 1
    26     9    10 1
    27     9    31 1
    28     9    32 1
    29    10    11 1
    30    10    33 1
    31    10    34 1
    32    11    12 1
    33    12    13 2
    34    12    35 1
@<TRIPOS>SUBSTRUCTURE
     1 DFD         1 TEMP              0 ****  ****    0 ROOT
