@<TRIPOS>MOLECULE
molecule
   15    14     1     0     0
SMALL
bcc


@<TRIPOS>ATOM
      1 CAA          0.0000     0.0000     0.0000 c3         1 DFE      -0.110100
      2 CAI          1.5300     0.0000     0.0000 c3         1 DFE       0.566400
      3 FAB          1.9960     0.0000     1.3190 f          1 DFE      -0.239300
      4 FAC          1.9970    -1.1420    -0.6600 f          1 DFE      -0.239300
      5 OAH          2.0060     1.1670    -0.6730 os         1 DFE      -0.395600
      6 CAG          3.4330     1.1090    -0.6390 c3         1 DFE       0.058400
      7 CAJ          4.0100     2.3380    -1.3470 c3         1 DFE       0.625900
      8 FAE          3.5750     3.4980    -0.6980 f          1 DFE      -0.217633
      9 FAF          5.4080     2.2820    -1.3140 f          1 DFE      -0.217633
     10 FAD          3.5760     2.3560    -2.6770 f          1 DFE      -0.217633
     11 HAA1        -0.3610     0.0010    -1.0210 hc         1 DFE       0.073700
     12 HAA2        -0.3610    -0.8850     0.5100 hc         1 DFE       0.073700
     13 HAA3        -0.3610     0.8840     0.5110 hc         1 DFE       0.073700
     14 HAG1         3.7700     1.0950     0.3900 h1         1 DFE       0.082700
     15 HAG2         3.7700     0.2110    -1.1420 h1         1 DFE       0.082700
@<TRIPOS>BOND
     1     1     2 1
     2     1    11 1
     3     1    12 1
     4     1    13 1
     5     2     3 1
     6     2     4 1
     7     2     5 1
     8     5     6 1
     9     6     7 1
    10     6    14 1
    11     6    15 1
    12     7     8 1
    13     7     9 1
    14     7    10 1
@<TRIPOS>SUBSTRUCTURE
     1 DFE         1 TEMP              0 ****  ****    0 ROOT
