@<TRIPOS>MOLECULE
DFE
   15    14     1     0     0
SMALL
bcc


@<TRIPOS>ATOM
      1 CAA         0.0020    0.1310   -0.0440 c3        1 DFE     -0.107100
      2 CAI         1.5220   -0.0620   -0.1140 c3        1 DFE      0.590400
      3 FAB         2.0600   -0.8080    0.9030 f         1 DFE     -0.242800
      4 FAC         1.9790   -0.6740   -1.2500 f         1 DFE     -0.242800
      5 OAH         2.1180    1.2230   -0.0360 os        1 DFE     -0.441600
      6 CAG         3.5230    1.3030   -0.1440 c3        1 DFE      0.104400
      7 CAJ         3.8830    2.0610   -1.4660 c3        1 DFE      0.606900
      8 FAE         3.4170    3.3480   -1.5170 f         1 DFE     -0.233300
      9 FAF         5.2400    2.1700   -1.6450 f         1 DFE     -0.233300
     10 FAD         3.4210    1.4650   -2.6080 f         1 DFE     -0.233300
     11 HAA1       -0.3260    0.7380   -0.9200 hc        1 DFE      0.080033
     12 HAA2       -0.2530    0.6630    0.9010 hc        1 DFE      0.080033
     13 HAA3       -0.4870   -0.8710   -0.0660 hc        1 DFE      0.080033
     14 HAG1        4.0180    0.3000   -0.1560 h1        1 DFE      0.096700
     15 HAG2        3.8710    1.9260    0.7220 h1        1 DFE      0.096700
@<TRIPOS>BOND
     1    1    2 1   
     2    1   11 1   
     3    1   12 1   
     4    1   13 1   
     5    2    3 1   
     6    2    4 1   
     7    2    5 1   
     8    5    6 1   
     9    6    7 1   
    10    6   14 1   
    11    6   15 1   
    12    7    8 1   
    13    7    9 1   
    14    7   10 1   
@<TRIPOS>SUBSTRUCTURE
     1 DFE         1 TEMP              0 ****  ****    0 ROOT
