@<TRIPOS>MOLECULE
molecule
   29    30     1     0     0
SMALL
bcc


@<TRIPOS>ATOM
      1 C1           0.0000     0.0000     0.0000 ca         1 DFH      -0.111250
      2 C2           1.3820     0.0000     0.0000 ca         1 DFH      -0.131000
      3 C3           2.0730     0.0000     1.1970 ca         1 DFH      -0.126000
      4 C4           1.3820     0.0000     2.3940 ca         1 DFH      -0.131000
      5 C5          -0.0000     0.0010     2.3930 ca         1 DFH      -0.111250
      6 C6          -0.6910     0.0000     1.1970 ca         1 DFH      -0.090300
      7 C7          -2.1980    -0.0000     1.1950 c3         1 DFH       0.249400
      8 C8          -2.7000    -1.3460     0.7390 ca         1 DFH      -0.090300
      9 C9          -2.5420    -1.7320    -0.5790 ca         1 DFH      -0.111250
     10 C10         -3.0020    -2.9660    -0.9980 ca         1 DFH      -0.131000
     11 C11         -3.6210    -3.8150    -0.0990 ca         1 DFH      -0.126000
     12 O15         -2.6750     0.2630     2.5170 oh         1 DFH      -0.602800
     13 C14         -2.7080     1.0840     0.2440 c3         1 DFH      -0.120100
     14 C13         -3.3140    -2.1960     1.6390 ca         1 DFH      -0.111250
     15 C12         -3.7790    -3.4280     1.2190 ca         1 DFH      -0.131000
     16 H1          -0.5410    -0.0000    -0.9380 ha         1 DFH       0.138000
     17 H2           1.9240     0.0000    -0.9380 ha         1 DFH       0.129000
     18 H3           3.1570    -0.0000     1.1970 ha         1 DFH       0.128000
     19 H4           1.9230     0.0000     3.3320 ha         1 DFH       0.129000
     20 H5          -0.5420     0.0010     3.3310 ha         1 DFH       0.138000
     21 H6          -2.0570    -1.0670    -1.2840 ha         1 DFH       0.138000
     22 H7          -2.8780    -3.2690    -2.0310 ha         1 DFH       0.129000
     23 H8          -3.9830    -4.7810    -0.4270 ha         1 DFH       0.128000
     24 H9          -3.1880     1.0540     2.5150 ho         1 DFH       0.409000
     25 H10         -2.3590     0.8780    -0.7600 hc         1 DFH       0.048033
     26 H11         -2.3360     2.0500     0.5650 hc         1 DFH       0.048033
     27 H12         -3.7920     1.0930     0.2550 hc         1 DFH       0.048033
     28 H13         -3.4380    -1.8940     2.6720 ha         1 DFH       0.138000
     29 H14         -4.2620    -4.0940     1.9240 ha         1 DFH       0.129000
@<TRIPOS>BOND
     1     1     2 ar
     2     1     6 ar
     3    12     7 1
     4     2     3 ar
     5    13     7 1
     6     7     6 1
     7     7     8 1
     8     6     5 ar
     9     3     4 ar
    10     5     4 ar
    11     8     9 ar
    12     8    14 ar
    13     9    10 ar
    14    14    15 ar
    15    10    11 ar
    16    15    11 ar
    17     1    16 1
    18     2    17 1
    19     3    18 1
    20     4    19 1
    21     5    20 1
    22     9    21 1
    23    10    22 1
    24    11    23 1
    25    12    24 1
    26    13    25 1
    27    13    26 1
    28    13    27 1
    29    14    28 1
    30    15    29 1
@<TRIPOS>SUBSTRUCTURE
     1 DFH         1 TEMP              0 ****  ****    0 ROOT
