@<TRIPOS>MOLECULE
DFH
   29    30     1     0     0
SMALL
bcc


@<TRIPOS>ATOM
      1 C1         -0.0140    0.4460   -0.0540 ca        1 DFH     -0.113500
      2 C2          1.3800    0.4730   -0.0610 ca        1 DFH     -0.133750
      3 C3          2.0950    0.1090    1.0790 ca        1 DFH     -0.125500
      4 C4          1.4100   -0.2850    2.2290 ca        1 DFH     -0.133750
      5 C5          0.0170   -0.3130    2.2380 ca        1 DFH     -0.113500
      6 C6         -0.7070    0.0540    1.0960 ca        1 DFH     -0.096800
      7 C7         -2.2190    0.0080    1.1360 c3        1 DFH      0.249400
      8 C8         -2.7170   -1.3770    0.7890 ca        1 DFH     -0.096800
      9 C9         -2.3000   -1.9780   -0.4050 ca        1 DFH     -0.113500
     10 C10        -2.7650   -3.2440   -0.7530 ca        1 DFH     -0.133750
     11 C11        -3.6470   -3.9220    0.0890 ca        1 DFH     -0.125500
     12 O15        -2.6700    0.2990    2.4660 oh        1 DFH     -0.598800
     13 C14        -2.8420    1.0340    0.1860 c3        1 DFH     -0.119100
     14 C13        -3.6000   -2.0600    1.6310 ca        1 DFH     -0.113500
     15 C12        -4.0620   -3.3280    1.2800 ca        1 DFH     -0.133750
     16 H1         -0.5640    0.7370   -0.9620 ha        1 DFH      0.141000
     17 H2          1.9160    0.7820   -0.9700 ha        1 DFH      0.131250
     18 H3          3.1940    0.1300    1.0720 ha        1 DFH      0.131000
     19 H4          1.9690   -0.5760    3.1310 ha        1 DFH      0.131250
     20 H5         -0.5270   -0.6280    3.1430 ha        1 DFH      0.141000
     21 H6         -1.5960   -1.4480   -1.0650 ha        1 DFH      0.141000
     22 H7         -2.4320   -3.7100   -1.6920 ha        1 DFH      0.131250
     23 H8         -4.0130   -4.9220   -0.1870 ha        1 DFH      0.131000
     24 H9         -2.3230    1.1720    2.6860 ho        1 DFH      0.406000
     25 H10        -2.3380    2.0230    0.3000 hc        1 DFH      0.048367
     26 H11        -2.7490    0.6940   -0.8720 hc        1 DFH      0.048367
     27 H12        -3.9250    1.1510    0.4310 hc        1 DFH      0.048367
     28 H13        -3.9290   -1.5940    2.5740 ha        1 DFH      0.141000
     29 H14        -4.7560   -3.8600    1.9480 ha        1 DFH      0.131250
@<TRIPOS>BOND
     1    1    2 ar  
     2    1    6 ar  
     3    1   16 1   
     4    2    3 ar  
     5    2   17 1   
     6    3    4 ar  
     7    3   18 1   
     8    4    5 ar  
     9    4   19 1   
    10    5    6 ar  
    11    5   20 1   
    12    6    7 1   
    13    7    8 1   
    14    7   12 1   
    15    7   13 1   
    16    8    9 ar  
    17    8   14 ar  
    18    9   10 ar  
    19    9   21 1   
    20   10   11 ar  
    21   10   22 1   
    22   11   15 ar  
    23   11   23 1   
    24   12   24 1   
    25   13   25 1   
    26   13   26 1   
    27   13   27 1   
    28   14   15 ar  
    29   14   28 1   
    30   15   29 1   
@<TRIPOS>SUBSTRUCTURE
     1 DFH         1 TEMP              0 ****  ****    0 ROOT
