@<TRIPOS>MOLECULE
DFJ
   71    71     1     0     0
SMALL
bcc


@<TRIPOS>ATOM
      1 C1          2.6220    0.3360    0.4240 ca        1 DFJ     -0.270500
      2 C2          2.4170    1.5300    1.2000 ca        1 DFJ      0.058000
      3 C3          1.1510    1.6480    1.8720 ca        1 DFJ     -0.270500
      4 C4          0.1790    0.6900    1.7220 ca        1 DFJ     -0.045500
      5 C5          0.3750   -0.4510    0.9190 ca        1 DFJ     -0.344000
      6 C6          1.6310   -0.6020    0.2950 ca        1 DFJ     -0.045500
      7 C11         3.3770    2.5040    1.2780 c2        1 DFJ     -0.095000
      8 P12         5.6340    4.8940    1.3560 p3        1 DFJ      2.410500
      9 F13         3.3530    3.6900    1.9400 f         1 DFJ     -0.145500
     10 F14         4.6030    2.5450    0.6960 f         1 DFJ     -0.145500
     11 O15         5.7810    4.9630   -0.1130 o         1 DFJ     -1.141000
     12 O16         4.8530    5.9520    2.0330 o         1 DFJ     -1.141000
     13 O17         6.5770    4.0810    2.1520 o         1 DFJ     -1.141000
     14 C20        -0.7130   -1.4090    0.6520 c3        1 DFJ     -0.068000
     15 C21        -0.8190   -2.5290    1.6820 c2        1 DFJ      0.308000
     16 O24        -0.5330   -3.7140    1.4030 o         1 DFJ     -0.416000
     17 N25        -1.3140   -2.1960    2.9340 n         1 DFJ     -0.366000
     18 C26        -1.3390   -3.1120    4.0370 c3        1 DFJ      0.021000
     19 C27        -2.7990   -3.3850    4.5100 c2        1 DFJ      0.284000
     20 O30        -3.5490   -2.4440    4.8370 o         1 DFJ     -0.389000
     21 N31        -3.2120   -4.7020    4.5280 n         1 DFJ     -0.341000
     22 C32        -4.3940   -5.1510    5.2340 c3        1 DFJ     -0.007000
     23 C33        -4.0300   -5.8050    6.5880 c2        1 DFJ      0.278000
     24 O34        -2.8740   -6.2210    6.8380 o         1 DFJ     -0.438000
     25 C35        -5.2110   -6.1730    4.4020 c3        1 DFJ     -0.059000
     26 C37        -6.4140   -6.6720    5.0960 ca        1 DFJ     -0.362000
     27 N40        -5.0150   -5.8660    7.5470 n         1 DFJ     -0.383000
     28 C43         0.8770   -2.6030    5.1410 ca        1 DFJ     -0.078000
     29 C46         1.5240   -1.6050    4.4020 ca        1 DFJ     -0.120000
     30 C47         2.9150   -1.6030    4.2900 ca        1 DFJ     -0.131000
     31 C48         3.6690   -2.5920    4.9180 ca        1 DFJ     -0.144000
     32 C49         3.0300   -3.5900    5.6550 ca        1 DFJ     -0.131000
     33 C50         1.6420   -3.5970    5.7660 ca        1 DFJ     -0.120000
     34 C56        -7.5490   -5.8560    5.2880 ca        1 DFJ     -0.052500
     35 C57        -8.6900   -6.3300    5.8850 ca        1 DFJ     -0.272000
     36 C58        -8.7870   -7.6960    6.3260 ca        1 DFJ      0.055000
     37 C59        -7.6260   -8.5200    6.1160 ca        1 DFJ     -0.272000
     38 C60        -6.4990   -8.0150    5.5200 ca        1 DFJ     -0.052500
     39 C65        -9.9210   -8.1930    6.9110 c2        1 DFJ     -0.089000
     40 F66       -10.1640   -9.4500    7.3680 f         1 DFJ     -0.144500
     41 F67       -11.0980   -7.5750    7.1800 f         1 DFJ     -0.144500
     42 P68       -12.6360   -9.4510    8.2740 p3        1 DFJ      2.410500
     43 O69       -13.5550   -8.9190    7.2450 o         1 DFJ     -1.141000
     44 O70       -12.2910  -10.8880    8.2280 o         1 DFJ     -1.141000
     45 O71       -12.4230   -8.7060    9.5320 o         1 DFJ     -1.141000
     46 C7         -0.6020   -2.6040    5.2960 c3        1 DFJ     -0.140000
     47 H1          3.5940    0.2090   -0.0690 ha        1 DFJ      0.108500
     48 H3          0.9850    2.5340    2.4970 ha        1 DFJ      0.108500
     49 H4         -0.7900    0.8170    2.2320 ha        1 DFJ      0.078000
     50 H6          1.8090   -1.5020   -0.3150 ha        1 DFJ      0.078000
     51 H201       -0.5510   -1.9130   -0.3390 hc        1 DFJ      0.078500
     52 H202       -1.7020   -0.8770    0.6090 hc        1 DFJ      0.078500
     53 H25        -1.4380   -1.2330    3.1480 hn        1 DFJ      0.232000
     54 H26        -0.8500   -4.0750    3.6960 h1        1 DFJ      0.135000
     55 H31        -2.5190   -5.4040    4.3910 hn        1 DFJ      0.223000
     56 H32        -5.0490   -4.2490    5.4280 h1        1 DFJ      0.140000
     57 H351       -5.5070   -5.6600    3.4470 hc        1 DFJ      0.068000
     58 H352       -4.5410   -7.0320    4.1290 hc        1 DFJ      0.068000
     59 H401       -4.8470   -6.4640    8.3220 hn        1 DFJ      0.221500
     60 H402       -5.9640   -5.8260    7.2310 hn        1 DFJ      0.221500
     61 H46         0.9430   -0.8220    3.8830 ha        1 DFJ      0.144000
     62 H47         3.4080   -0.8170    3.6930 ha        1 DFJ      0.135000
     63 H48         4.7640   -2.5880    4.8280 ha        1 DFJ      0.116000
     64 H49         3.6210   -4.3750    6.1470 ha        1 DFJ      0.135000
     65 H50         1.1410   -4.3880    6.3430 ha        1 DFJ      0.144000
     66 H56        -7.5050   -4.8100    4.9470 ha        1 DFJ      0.083000
     67 H57        -9.5650   -5.6840    6.0320 ha        1 DFJ      0.109000
     68 H59        -7.6780   -9.5670    6.4390 ha        1 DFJ      0.109000
     69 H60        -5.6290   -8.6730    5.3640 ha        1 DFJ      0.083000
     70 H7C1       -0.9610   -1.5690    5.5450 hc        1 DFJ      0.100500
     71 H7C2       -0.8950   -3.2730    6.1500 hc        1 DFJ      0.100500
@<TRIPOS>BOND
     1    1    2 1   
     2    1    6 1   
     3    1   47 1   
     4    2    3 1   
     5    2    7 1   
     6    3    4 1   
     7    3   48 1   
     8    4    5 1   
     9    4   49 1   
    10    5    6 1   
    11    5   14 1   
    12    6   50 1   
    13    7    9 1   
    14    7   10 1   
    15    8   11 1   
    16    8   12 1   
    17    8   13 1   
    18   14   15 1   
    19   14   51 1   
    20   14   52 1   
    21   15   16 1   
    22   15   17 1   
    23   17   18 1   
    24   17   53 1   
    25   18   19 1   
    26   18   46 1   
    27   18   54 1   
    28   19   20 1   
    29   19   21 1   
    30   21   22 1   
    31   21   55 1   
    32   22   23 1   
    33   22   25 1   
    34   22   56 1   
    35   23   24 1   
    36   23   27 1   
    37   25   26 1   
    38   25   57 1   
    39   25   58 1   
    40   26   34 1   
    41   26   38 1   
    42   27   59 1   
    43   27   60 1   
    44   28   29 1   
    45   28   33 1   
    46   28   46 1   
    47   29   30 1   
    48   29   61 1   
    49   30   31 1   
    50   30   62 1   
    51   31   32 1   
    52   31   63 1   
    53   32   33 1   
    54   32   64 1   
    55   33   65 1   
    56   34   35 1   
    57   34   66 1   
    58   35   36 1   
    59   35   67 1   
    60   36   37 1   
    61   36   39 1   
    62   37   38 1   
    63   37   68 1   
    64   38   69 1   
    65   39   40 1   
    66   39   41 1   
    67   42   43 1   
    68   42   44 1   
    69   42   45 1   
    70   46   70 1   
    71   46   71 1   
@<TRIPOS>SUBSTRUCTURE
     1 DFJ         1 TEMP              0 ****  ****    0 ROOT
