@<TRIPOS>MOLECULE
molecule
   66    67     1     0     0
SMALL
bcc


@<TRIPOS>ATOM
      1 N1           0.0000     0.0000     0.0000 nz         1 DFK      -0.792600
      2 CA1          1.4690     0.0000     0.0000 c3         1 DFK       0.035500
      3 C1           1.9710     0.0000     1.4210 c          1 DFK       0.672100
      4 O1           1.2430    -0.3590     2.3220 o          1 DFK      -0.604100
      5 CB1          1.9800    -1.2480    -0.7220 c3         1 DFK      -0.046100
      6 CG1          1.5820    -1.1880    -2.1730 ca         1 DFK      -0.161300
      7 CD1          2.4220    -0.5940    -3.0960 ca         1 DFK      -0.133000
      8 CD2          0.3780    -1.7310    -2.5830 ca         1 DFK      -0.133000
      9 CE1          2.0570    -0.5390    -4.4290 ca         1 DFK      -0.103000
     10 CE2          0.0110    -1.6730    -3.9150 ca         1 DFK      -0.103000
     11 CZ1          0.8510    -1.0780    -4.8370 ca         1 DFK      -0.091000
     12 N2           3.2300     0.4000     1.6910 n          1 DFK      -0.452800
     13 CA2          3.8120     0.5630     3.0360 c3         1 DFK       0.037700
     14 C2           2.7800     1.1090     3.9910 c          1 DFK       0.663100
     15 O2           1.8550     1.7720     3.5700 o          1 DFK      -0.598100
     16 CB2          4.9660     1.5790     2.8510 c3         1 DFK      -0.084400
     17 CG2          5.5220     1.1680     1.4620 c3         1 DFK      -0.087400
     18 CD3          4.2520     0.7480     0.6920 c3         1 DFK       0.078000
     19 N3           2.8860     0.8610     5.3110 ns         1 DFK      -0.574900
     20 CA3          1.8840     1.3930     6.2380 c3         1 DFK       0.119700
     21 C3           2.2560     2.8250     6.6260 c3         1 DFK       0.133100
     22 O3           1.2790     3.3430     7.5310 oh         1 DFK      -0.605800
     23 CB3          1.8390     0.5200     7.4940 c3         1 DFK      -0.087400
     24 CG3          1.3460    -0.8810     7.1250 c3         1 DFK      -0.104400
     25 CD4          1.3010    -1.7540     8.3800 c3         1 DFK       0.243800
     26 NE           0.8290    -3.0940     8.0260 nu         1 DFK      -0.859200
     27 CZ3          0.7060    -4.0590     8.9980 c2         1 DFK       0.685100
     28 NH1          1.0090    -3.7800    10.2350 n2         1 DFK      -0.771100
     29 NH2          0.2630    -5.3170     8.6650 nz         1 DFK      -0.807600
     30 CH2          2.3020     3.6980     5.3700 c3         1 DFK      -0.128100
     31 HN11        -0.3340    -0.9400     0.0780 hn         1 DFK       0.464133
     32 HN12        -0.3340     0.4020    -0.8540 hn         1 DFK       0.464133
     33 HA1          1.8300     0.8850    -0.5100 hx         1 DFK       0.130700
     34 HB11         3.0600    -1.2940    -0.6450 hc         1 DFK       0.089200
     35 HB12         1.5480    -2.1310    -0.2650 hc         1 DFK       0.089200
     36 HD1          3.3670    -0.1710    -2.7750 ha         1 DFK       0.124500
     37 HD2         -0.2800    -2.1970    -1.8600 ha         1 DFK       0.124500
     38 HE1          2.7150    -0.0730    -5.1520 ha         1 DFK       0.157000
     39 HE2         -0.9330    -2.0960    -4.2360 ha         1 DFK       0.157000
     40 HZ1          0.5640    -1.0330    -5.8810 ha         1 DFK       0.162000
     41 HA2          4.2000    -0.3830     3.3930 h1         1 DFK       0.072700
     42 HB21         4.5870     2.5940     2.8300 hc         1 DFK       0.081700
     43 HB22         5.7180     1.4520     3.6200 hc         1 DFK       0.081700
     44 HG21         6.2050     0.3330     1.5560 hc         1 DFK       0.078700
     45 HG22         6.0000     2.0120     0.9780 hc         1 DFK       0.078700
     46 HD31         3.9030     1.5730     0.0810 h1         1 DFK       0.054200
     47 HD32         4.4670    -0.1120     0.0700 h1         1 DFK       0.054200
     48 HN3          3.6580     0.3280     5.6600 hn         1 DFK       0.316500
     49 HA3          0.9120     1.3900     5.7600 h1         1 DFK       0.096700
     50 H3           3.2290     2.8290     7.1040 h1         1 DFK       0.032700
     51 HO3          1.6880     3.9580     8.1170 ho         1 DFK       0.420000
     52 HB31         1.1630     0.9620     8.2160 hc         1 DFK       0.071200
     53 HB32         2.8310     0.4530     7.9220 hc         1 DFK       0.071200
     54 HG31         2.0220    -1.3230     6.4020 hc         1 DFK       0.051700
     55 HG32         0.3540    -0.8140     6.6960 hc         1 DFK       0.051700
     56 HD41         0.6250    -1.3130     9.1030 h1         1 DFK       0.077700
     57 HD42         2.2930    -1.8220     8.8090 h1         1 DFK       0.077700
     58 HNE          0.6370    -3.3200     7.0700 hn         1 DFK       0.450800
     59 HNH1         0.9190    -4.4820    10.9430 hn         1 DFK       0.445400
     60 HN21         0.5350    -5.5290     7.7250 hn         1 DFK       0.468133
     61 HN22         0.6670    -5.9880     9.2880 hn         1 DFK       0.468133
     62 HH21         2.1080     4.7290     5.6400 hc         1 DFK       0.054367
     63 HH22         1.5490     3.3610     4.6680 hc         1 DFK       0.054367
     64 HH23         3.2810     3.6230     4.9130 hc         1 DFK       0.054367
     65 H13         -0.3340     0.5410     0.7730 hn         1 DFK       0.464133
     66 HH24        -0.7340    -5.3520     8.7460 hn         1 DFK       0.468133
@<TRIPOS>BOND
     1     1     2 1
     2     1    31 1
     3     1    32 1
     4     2     3 1
     5     2     5 1
     6     2    33 1
     7     3     4 2
     8     3    12 1
     9     5     6 1
    10     5    34 1
    11     5    35 1
    12     6     7 ar
    13     6     8 ar
    14     7     9 ar
    15     7    36 1
    16     8    10 ar
    17     8    37 1
    18     9    11 ar
    19     9    38 1
    20    10    11 ar
    21    10    39 1
    22    11    40 1
    23    12    13 1
    24    12    18 1
    25    13    14 1
    26    13    16 1
    27    13    41 1
    28    14    15 2
    29    14    19 1
    30    16    17 1
    31    16    42 1
    32    16    43 1
    33    17    18 1
    34    17    44 1
    35    17    45 1
    36    18    46 1
    37    18    47 1
    38    19    20 1
    39    19    48 1
    40    20    21 1
    41    20    23 1
    42    20    49 1
    43    21    22 1
    44    21    30 1
    45    21    50 1
    46    22    51 1
    47    23    24 1
    48    23    52 1
    49    23    53 1
    50    24    25 1
    51    24    54 1
    52    24    55 1
    53    25    26 1
    54    25    56 1
    55    25    57 1
    56    26    27 1
    57    26    58 1
    58    27    28 2
    59    27    29 1
    60    28    59 1
    61    29    60 1
    62    29    61 1
    63    30    62 1
    64    30    63 1
    65    30    64 1
    66    65     1 1
    67    66    29 1
@<TRIPOS>SUBSTRUCTURE
     1 DFK         1 TEMP              0 ****  ****    0 ROOT
