@<TRIPOS>MOLECULE
molecule
   30    32     1     0     0
SMALL
bcc


@<TRIPOS>ATOM
      1 C1           0.0000     0.0000     0.0000 ca         1 DFL      -0.073000
      2 C2           1.3860     0.0000     0.0000 ca         1 DFL      -0.172000
      3 C3           2.0740     0.0000     1.1930 ca         1 DFL      -0.040000
      4 C4           1.3680    -0.0000     2.3980 ca         1 DFL      -0.249600
      5 C5          -0.0330     0.0180     2.4050 ca         1 DFL       0.162100
      6 C6          -0.7050     0.0090     1.1840 ca         1 DFL      -0.169000
      7 C7           2.0960    -0.0220     3.6820 c          1 DFL       0.580700
      8 C8           1.2280     0.1410     4.9210 c3         1 DFL      -0.204400
      9 C9          -0.0890    -0.5850     4.6090 c3         1 DFL       0.189400
     10 O1          -0.7580     0.0670     3.5420 os         1 DFL      -0.301900
     11 C10         -0.9700    -0.5720     5.8320 ca         1 DFL      -0.104300
     12 C11         -1.8600     0.4660     6.0310 ca         1 DFL      -0.096500
     13 C12         -2.6670     0.4800     7.1510 ca         1 DFL      -0.153500
     14 C13         -2.5850    -0.5490     8.0780 ca         1 DFL       0.113100
     15 C14         -1.6870    -1.5860     7.8800 ca         1 DFL      -0.153500
     16 C15         -0.8860    -1.5980     6.7550 ca         1 DFL      -0.096500
     17 O2           3.2990    -0.1620     3.7460 o          1 DFL      -0.516100
     18 O4          -3.3790    -0.5360     9.1810 oh         1 DFL      -0.522100
     19 H1          -0.5350    -0.0000    -0.9420 ha         1 DFL       0.136000
     20 H2           1.9280    -0.0070    -0.9380 ha         1 DFL       0.138000
     21 H3           3.1570     0.0000     1.1970 ha         1 DFL       0.154000
     22 H6          -1.7890     0.0090     1.1660 ha         1 DFL       0.147000
     23 H81          1.0400     1.1910     5.1080 hc         1 DFL       0.088200
     24 H82          1.7110    -0.3160     5.7760 hc         1 DFL       0.088200
     25 H9           0.1250    -1.6080     4.3260 h1         1 DFL       0.060700
     26 H11         -1.9250     1.2700     5.3070 ha         1 DFL       0.141500
     27 H12         -3.3670     1.2930     7.3040 ha         1 DFL       0.144000
     28 H14         -1.6200    -2.3910     8.6010 ha         1 DFL       0.144000
     29 H15         -0.1840    -2.4090     6.6000 ha         1 DFL       0.141500
     30 HO4         -4.1860    -0.9860     8.9930 ho         1 DFL       0.421000
@<TRIPOS>BOND
     1     1     2 ar
     2     1     6 ar
     3     1    19 1
     4     2     3 ar
     5     2    20 1
     6     3     4 ar
     7     3    21 1
     8     4     5 ar
     9     4     7 1
    10     5     6 ar
    11     5    10 1
    12     6    22 1
    13     7     8 1
    14     7    17 2
    15     8     9 1
    16     8    23 1
    17     8    24 1
    18     9    10 1
    19     9    11 1
    20     9    25 1
    21    11    12 ar
    22    11    16 ar
    23    12    13 ar
    24    12    26 1
    25    13    14 ar
    26    13    27 1
    27    14    15 ar
    28    14    18 1
    29    15    16 ar
    30    15    28 1
    31    16    29 1
    32    18    30 1
@<TRIPOS>SUBSTRUCTURE
     1 DFL         1 TEMP              0 ****  ****    0 ROOT
