@<TRIPOS>MOLECULE
DFL
   30    32     1     0     0
SMALL
bcc


@<TRIPOS>ATOM
      1 C1          0.0110    0.0970   -0.0390 ca        1 DFL     -0.071000
      2 C2          1.4080    0.1480   -0.0250 ca        1 DFL     -0.178000
      3 C3          2.0970    0.0730    1.1800 ca        1 DFL     -0.041000
      4 C4          1.4010   -0.0530    2.3900 ca        1 DFL     -0.245600
      5 C5         -0.0040   -0.1210    2.3610 ca        1 DFL      0.166100
      6 C6         -0.7060   -0.0420    1.1450 ca        1 DFL     -0.171000
      7 C7          2.1170   -0.0870    3.6730 c         1 DFL      0.587700
      8 C8          1.2340   -0.0480    4.8890 c3        1 DFL     -0.211400
      9 C9         -0.0840   -0.7710    4.6430 c3        1 DFL      0.203400
     10 O1         -0.7780   -0.2270    3.4970 os        1 DFL     -0.322900
     11 C10        -1.0080   -0.6320    5.8130 ca        1 DFL     -0.134300
     12 C11        -1.7890    0.5180    5.9780 ca        1 DFL     -0.071000
     13 C12        -2.6340    0.6490    7.0740 ca        1 DFL     -0.188000
     14 C13        -2.6920   -0.3900    8.0180 ca        1 DFL      0.134100
     15 C14        -1.9180   -1.5490    7.8610 ca        1 DFL     -0.188000
     16 C15        -1.0830   -1.6650    6.7530 ca        1 DFL     -0.071000
     17 O2          3.3490   -0.1120    3.7640 o         1 DFL     -0.530100
     18 O4         -3.5400   -0.2030    9.0840 oh        1 DFL     -0.494100
     19 H1         -0.5300    0.1610   -0.9960 ha        1 DFL      0.138000
     20 H2          1.9620    0.2500   -0.9700 ha        1 DFL      0.140000
     21 H3          3.1990    0.1160    1.2070 ha        1 DFL      0.156000
     22 H6         -1.8040   -0.0890    1.1490 ha        1 DFL      0.154000
     23 H81         1.7570   -0.5140    5.7630 hc        1 DFL      0.089200
     24 H82         1.0370    1.0290    5.1400 hc        1 DFL      0.089200
     25 H9          0.1150   -1.8600    4.4250 h1        1 DFL      0.061700
     26 H11        -1.7380    1.3180    5.2230 ha        1 DFL      0.142000
     27 H12        -3.2530    1.5460    7.2140 ha        1 DFL      0.145500
     28 H14        -1.9720   -2.3580    8.6020 ha        1 DFL      0.145500
     29 H15        -0.4790   -2.5760    6.6220 ha        1 DFL      0.142000
     30 HO4        -3.4900   -0.9890    9.6480 ho        1 DFL      0.421000
@<TRIPOS>BOND
     1    1    2 ar  
     2    1    6 ar  
     3    1   19 1   
     4    2    3 ar  
     5    2   20 1   
     6    3    4 ar  
     7    3   21 1   
     8    4    5 ar  
     9    4    7 1   
    10    5    6 ar  
    11    5   10 1   
    12    6   22 1   
    13    7    8 1   
    14    7   17 2   
    15    8    9 1   
    16    8   23 1   
    17    8   24 1   
    18    9   10 1   
    19    9   11 1   
    20    9   25 1   
    21   11   12 ar  
    22   11   16 ar  
    23   12   13 ar  
    24   12   26 1   
    25   13   14 ar  
    26   13   27 1   
    27   14   15 ar  
    28   14   18 1   
    29   15   16 ar  
    30   15   28 1   
    31   16   29 1   
    32   18   30 1   
@<TRIPOS>SUBSTRUCTURE
     1 DFL         1 TEMP              0 ****  ****    0 ROOT
