@<TRIPOS>MOLECULE
molecule
   56    57     1     0     0
SMALL
bcc


@<TRIPOS>ATOM
      1 C1           0.0000     0.0000     0.0000 c3         1 DFM       0.288700
      2 O6          -2.4060     1.1650     0.1210 o          1 DFM      -0.753833
      3 O7          -0.4740     2.2590     1.3390 o          1 DFM      -0.753833
      4 O9          -0.5490     2.3790    -1.2830 o          1 DFM      -0.753833
      5 C11          1.4910     0.0000     0.0000 ca         1 DFM      -0.041300
      6 C12          2.1890     0.0000     1.2080 ca         1 DFM      -0.087500
      7 C13          3.5840     0.0010     1.2080 ca         1 DFM      -0.133500
      8 C14          4.2630     0.0010     0.0000 ca         1 DFM      -0.148300
      9 C15          3.5840     0.0010    -1.2080 ca         1 DFM      -0.133500
     10 C16          2.1890     0.0000    -1.2080 ca         1 DFM      -0.087500
     11 C21          5.7730     0.0020     0.0000 c3         1 DFM      -0.024100
     12 C22          6.3650     1.4160     0.0000 c3         1 DFM       0.074700
     13 C25          7.8140     1.3830     0.4600 c          1 DFM       0.305100
     14 O26          8.7670     1.1970    -0.2940 o          1 DFM      -0.523100
     15 N27          7.9530     1.6350     1.8090 nz         1 DFM      -0.650400
     16 N45          6.3490     2.0150    -1.3150 ns         1 DFM      -0.580900
     17 C47          5.7090     3.2140    -1.5990 c          1 DFM       0.652100
     18 C48          5.8080     3.5770    -3.0760 c3         1 DFM       0.054700
     19 O49          5.0920     3.8940    -0.7820 o          1 DFM      -0.555100
     20 N51          4.5540     4.1810    -3.4520 ns         1 DFM      -0.588900
     21 C4           6.9970     4.5150    -3.3160 c3         1 DFM      -0.043100
     22 C5           7.4270     4.5550    -4.7620 ca         1 DFM      -0.057300
     23 C30          8.3820     3.6570    -5.2120 ca         1 DFM      -0.125500
     24 C31          8.7790     3.6940    -6.5480 ca         1 DFM      -0.137500
     25 C6           8.2150     4.6280    -7.4180 ca         1 DFM      -0.133000
     26 C33          7.2550     5.5250    -6.9500 ca         1 DFM      -0.137500
     27 C34          6.8580     5.4880    -5.6150 ca         1 DFM      -0.125500
     28 C67          3.4550     3.4510    -3.8700 c          1 DFM       0.684100
     29 O70          3.3930     2.2320    -3.9800 o          1 DFM      -0.581100
     30 C71          2.2620     4.2830    -4.2070 c3         1 DFM      -0.176100
     31 F66         -0.5630    -0.6180    -1.0710 f          1 DFM      -0.239300
     32 F67         -0.5690    -0.5480     1.1040 f          1 DFM      -0.239300
     33 P68         -0.8480     1.5540    -0.0670 p5         1 DFM       1.003700
     34 H12          1.6470    -0.0000     2.1460 ha         1 DFM       0.163000
     35 H16          1.6470     0.0000    -2.1460 ha         1 DFM       0.163000
     36 H13          4.1300     0.0010     2.1430 ha         1 DFM       0.107000
     37 H15          4.1310     0.0010    -2.1430 ha         1 DFM       0.107000
     38 H211         6.1220    -0.5230    -0.8810 hc         1 DFM       0.039200
     39 H212         6.1220    -0.5230     0.8810 hc         1 DFM       0.039200
     40 H22          5.7930     2.0380     0.6780 h1         1 DFM       0.093700
     41 H45          6.8230     1.5410    -2.0590 hn         1 DFM       0.328500
     42 H271         7.7560     0.8010     2.3260 hn         1 DFM       0.435800
     43 H272         7.3140     2.3550     2.0820 hn         1 DFM       0.435800
     44 H48          5.9500     2.6720    -3.6530 h1         1 DFM       0.083700
     45 H51          4.4750     5.1770    -3.4080 hn         1 DFM       0.321500
     46 H4C1         7.8320     4.1800    -2.7130 hc         1 DFM       0.056200
     47 H4C2         6.7210     5.5150    -3.0060 hc         1 DFM       0.056200
     48 H30          8.7100     2.8480    -4.5710 ha         1 DFM       0.141000
     49 H34          6.3720     6.4560    -5.6110 ha         1 DFM       0.141000
     50 H31          9.5090     2.9830    -6.9160 ha         1 DFM       0.128500
     51 H6           8.5060     4.6410    -8.4610 ha         1 DFM       0.126000
     52 H33          6.8260     6.2580    -7.6230 ha         1 DFM       0.128500
     53 H711         1.4390     3.6370    -4.4880 hc         1 DFM       0.072033
     54 H712         2.5020     4.9410    -5.0340 hc         1 DFM       0.072033
     55 H713         1.9790     4.8750    -3.3450 hc         1 DFM       0.072033
     56 H273         8.8910     1.9290     1.9990 hn         1 DFM       0.435800
@<TRIPOS>BOND
     1     1     5 1
     2     1    31 1
     3     1    32 1
     4     1    33 1
     5     2    33 1
     6     3    33 1
     7     4    33 1
     8     5     6 ar
     9     5    10 ar
    10     6     7 ar
    11     6    34 1
    12     7     8 ar
    13     7    36 1
    14     8     9 ar
    15     8    11 1
    16     9    10 ar
    17     9    37 1
    18    10    35 1
    19    11    12 1
    20    11    38 1
    21    11    39 1
    22    12    13 1
    23    12    16 1
    24    12    40 1
    25    13    14 2
    26    13    15 1
    27    15    42 1
    28    15    43 1
    29    16    17 1
    30    16    41 1
    31    17    18 1
    32    17    19 2
    33    18    20 1
    34    18    21 1
    35    18    44 1
    36    20    28 1
    37    20    45 1
    38    21    22 1
    39    21    46 1
    40    21    47 1
    41    22    23 ar
    42    22    27 ar
    43    23    24 ar
    44    23    48 1
    45    24    25 ar
    46    24    50 1
    47    25    26 ar
    48    25    51 1
    49    26    27 ar
    50    26    52 1
    51    27    49 1
    52    28    29 2
    53    28    30 1
    54    30    53 1
    55    30    54 1
    56    30    55 1
    57    56    15 1
@<TRIPOS>SUBSTRUCTURE
     1 DFM         1 TEMP              0 ****  ****    0 ROOT
