@<TRIPOS>MOLECULE
DFM
   55    55     1     0     0
SMALL
bcc


@<TRIPOS>ATOM
      1 C1          1.5020    2.6320   -1.2900 c2        1 DFM     -0.097000
      2 O6         -1.0030    3.5170   -4.0120 o         1 DFM     -1.139667
      3 O7         -0.1990    5.6770   -2.9390 o         1 DFM     -1.139667
      4 O9          1.4590    4.1930   -4.1950 o         1 DFM     -1.139667
      5 C11         2.3510    1.9070   -0.4980 ca        1 DFM      0.045000
      6 C12         3.1480    2.5230    0.5270 ca        1 DFM     -0.278000
      7 C13         4.1480    1.8190    1.1490 ca        1 DFM     -0.048500
      8 C14         4.4120    0.4720    0.8290 ca        1 DFM     -0.352000
      9 C15         3.5240   -0.1850   -0.0470 ca        1 DFM     -0.048500
     10 C16         2.5150    0.4900   -0.6860 ca        1 DFM     -0.278000
     11 C21         5.6650   -0.1820    1.2510 c3        1 DFM     -0.060000
     12 C22         6.8720    0.3580    0.4380 c3        1 DFM     -0.001000
     13 C25         8.0590   -0.6230    0.5490 c2        1 DFM      0.296000
     14 O26         8.0010   -1.6930    1.1920 o         1 DFM     -0.417000
     15 N27         9.2410   -0.2480   -0.0400 n         1 DFM     -0.435000
     16 N45         6.5400    0.6380   -0.9460 n         1 DFM     -0.326000
     17 C47         7.0190    1.7780   -1.5600 c2        1 DFM      0.285000
     18 C48         6.2550    2.4260   -2.7450 c3        1 DFM      0.024000
     19 O49         8.1230    2.2650   -1.2160 o         1 DFM     -0.440000
     20 N51         4.9410    1.8990   -2.9750 n         1 DFM     -0.377000
     21 C4          6.2510    3.9500   -2.4730 c3        1 DFM     -0.138000
     22 C5          5.8380    4.7310   -3.6700 ca        1 DFM     -0.090000
     23 C30         6.8090    5.3520   -4.4680 ca        1 DFM     -0.116500
     24 C31         6.4310    6.0950   -5.5830 ca        1 DFM     -0.130000
     25 C6          5.0820    6.2200   -5.9180 ca        1 DFM     -0.156000
     26 C33         4.1120    5.6040   -5.1310 ca        1 DFM     -0.130000
     27 C34         4.4860    4.8680   -4.0040 ca        1 DFM     -0.116500
     28 C67         4.5580    1.3680   -4.2010 c2        1 DFM      0.321000
     29 O70         5.4160    0.9900   -5.0310 o         1 DFM     -0.426000
     30 C71         3.0800    1.2560   -4.4560 c3        1 DFM     -0.269000
     31 F66         0.7470    2.2040   -2.3340 f         1 DFM     -0.142500
     32 F67         1.2800    3.9710   -1.3070 f         1 DFM     -0.142500
     33 P68         0.1080    4.4060   -3.6230 p3        1 DFM      2.415000
     34 H12         2.9420    3.5700    0.7780 ha        1 DFM      0.112500
     35 H16         1.8230   -0.0220   -1.3660 ha        1 DFM      0.112500
     36 H13         4.7810    2.3150    1.9020 ha        1 DFM      0.083000
     37 H15         3.6620   -1.2620   -0.2320 ha        1 DFM      0.083000
     38 H211        5.8930    0.0140    2.3310 hc        1 DFM      0.076000
     39 H212        5.6040   -1.2940    1.1140 hc        1 DFM      0.076000
     40 H22         7.2160    1.3200    0.9320 h1        1 DFM      0.105000
     41 H45         5.6250    0.3220   -1.2080 hn        1 DFM      0.257000
     42 H271        9.9990   -0.8810   -0.0590 hn        1 DFM      0.223500
     43 H272        9.2840    0.5700   -0.6000 hn        1 DFM      0.223500
     44 H48         6.8920    2.2210   -3.6610 h1        1 DFM      0.141000
     45 H51         4.2140    2.2200   -2.3650 hn        1 DFM      0.258000
     46 H4C1        7.2880    4.2440   -2.1590 hc        1 DFM      0.105000
     47 H4C2        5.5580    4.1750   -1.6180 hc        1 DFM      0.105000
     48 H30         7.8730    5.2470   -4.2130 ha        1 DFM      0.154000
     49 H34         3.6790    4.3970   -3.4080 ha        1 DFM      0.154000
     50 H31         7.1990    6.5790   -6.2030 ha        1 DFM      0.140000
     51 H6          4.7880    6.8000   -6.8040 ha        1 DFM      0.106000
     52 H33         3.0350    5.6600   -5.3710 ha        1 DFM      0.140000
     53 H711        2.6420    2.2880   -4.5930 hc        1 DFM      0.131333
     54 H712        2.5470    0.7850   -3.5910 hc        1 DFM      0.131333
     55 H713        2.9110    0.6530   -5.3770 hc        1 DFM      0.131333
@<TRIPOS>BOND
     1    1    5 1   
     2    1   31 1   
     3    1   32 1   
     4    2   33 1   
     5    3   33 1   
     6    4   33 1   
     7    5    6 1   
     8    5   10 1   
     9    6    7 1   
    10    6   34 1   
    11    7    8 1   
    12    7   36 1   
    13    8    9 1   
    14    8   11 1   
    15    9   10 1   
    16    9   37 1   
    17   10   35 1   
    18   11   12 1   
    19   11   38 1   
    20   11   39 1   
    21   12   13 1   
    22   12   16 1   
    23   12   40 1   
    24   13   14 1   
    25   13   15 1   
    26   15   42 1   
    27   15   43 1   
    28   16   17 1   
    29   16   41 1   
    30   17   18 1   
    31   17   19 1   
    32   18   20 1   
    33   18   21 1   
    34   18   44 1   
    35   20   28 1   
    36   20   45 1   
    37   21   22 1   
    38   21   46 1   
    39   21   47 1   
    40   22   23 1   
    41   22   27 1   
    42   23   24 1   
    43   23   48 1   
    44   24   25 1   
    45   24   50 1   
    46   25   26 1   
    47   25   51 1   
    48   26   27 1   
    49   26   52 1   
    50   27   49 1   
    51   28   29 1   
    52   28   30 1   
    53   30   53 1   
    54   30   54 1   
    55   30   55 1   
@<TRIPOS>SUBSTRUCTURE
     1 DFM         1 TEMP              0 ****  ****    0 ROOT
