@<TRIPOS>MOLECULE
molecule
   50    53     1     0     0
SMALL
bcc


@<TRIPOS>ATOM
      1 C28          0.0000     0.0000     0.0000 c3         1 DFN       0.037600
      2 N22          1.4650     0.0000     0.0000 na         1 DFN      -0.058400
      3 C48          2.2390     0.0000     1.1130 cc         1 DFN      -0.051100
      4 C21          2.2520    -0.0070    -1.1350 ca         1 DFN      -0.057200
      5 C24          1.9540    -0.0030    -2.4940 ca         1 DFN      -0.111000
      6 C31          2.9740    -0.0030    -3.4220 ca         1 DFN      -0.149000
      7 C29          4.3020    -0.0030    -3.0140 ca         1 DFN       0.111900
      8 F39          5.2890    -0.0050    -3.9370 f          1 DFN      -0.142900
      9 C20          3.5940    -0.0010    -0.7240 ca         1 DFN      -0.047800
     10 C23          4.6160    -0.0030    -1.6710 ca         1 DFN      -0.123000
     11 C19          3.5670    -0.0010     0.7500 cd         1 DFN      -0.124200
     12 C01          4.7270    -0.0000     1.6520 cd         1 DFN      -0.053200
     13 C02          5.2110    -1.0720     2.3910 cc         1 DFN      -0.089400
     14 C03          6.3820    -0.5650     3.1300 c          1 DFN       0.700700
     15 O06          7.0740    -1.2150     3.8880 o          1 DFN      -0.562500
     16 N04          6.5580     0.7310     2.8270 ns         1 DFN      -0.593500
     17 C05          5.6240     1.1420     1.9520 c          1 DFN       0.695700
     18 O07          5.5260     2.2620     1.4920 o          1 DFN      -0.559500
     19 C08          4.6610    -2.4420     2.4310 ca         1 DFN       0.002200
     20 C09          4.1230    -2.9460     3.6160 ca         1 DFN      -0.179000
     21 C10          3.6040    -4.2320     3.6440 ca         1 DFN       0.203600
     22 C11          3.6320    -5.0180     2.4980 ca         1 DFN      -0.200000
     23 C12          4.1710    -4.5200     1.3250 ca         1 DFN      -0.085000
     24 C13          4.6840    -3.2410     1.2840 ca         1 DFN      -0.151000
     25 N15          3.0590    -4.7390     4.8260 nu         1 DFN      -0.822600
     26 C26          2.5170    -6.1000     4.8570 c3         1 DFN       0.236800
     27 C34          1.9870    -6.4060     6.2590 c3         1 DFN       0.136100
     28 O41          3.0510    -6.2960     7.2060 oh         1 DFN      -0.592800
     29 C40          1.4200    -7.8270     6.2910 c3         1 DFN       0.121400
     30 O45          0.8200    -8.0710     7.5660 oh         1 DFN      -0.610800
     31 H281        -0.3610    -0.8860    -0.5080 h1         1 DFN       0.052367
     32 H282        -0.3610     0.8830    -0.5140 h1         1 DFN       0.052367
     33 H283        -0.3610     0.0030     1.0210 h1         1 DFN       0.052367
     34 H48          1.8700     0.0020     2.1320 h4         1 DFN       0.175000
     35 H24          0.9220    -0.0020    -2.8230 ha         1 DFN       0.132000
     36 H31          2.7370    -0.0030    -4.4790 ha         1 DFN       0.146000
     37 H23          5.6520    -0.0030    -1.3540 ha         1 DFN       0.149000
     38 H04          7.2870     1.3090     3.1960 hn         1 DFN       0.355500
     39 H09          4.1020    -2.3330     4.5080 ha         1 DFN       0.135000
     40 H11          3.2280    -6.0230     2.5220 ha         1 DFN       0.130000
     41 H12          4.1900    -5.1370     0.4350 ha         1 DFN       0.132000
     42 H13          5.1060    -2.8550     0.3640 ha         1 DFN       0.138000
     43 H15          3.0040    -4.1600     5.6400 hn         1 DFN       0.441800
     44 H261         3.2990    -6.8060     4.6050 h1         1 DFN       0.047700
     45 H262         1.7100    -6.1840     4.1390 h1         1 DFN       0.047700
     46 H34          1.2050    -5.7000     6.5120 h1         1 DFN       0.044700
     47 H41          2.7420    -5.8500     7.9770 ho         1 DFN       0.411000
     48 H401         2.2200    -8.5390     6.1270 h1         1 DFN       0.032700
     49 H402         0.6740    -7.9360     5.5140 h1         1 DFN       0.032700
     50 H45          0.3910    -8.9110     7.5550 ho         1 DFN       0.408000
@<TRIPOS>BOND
     1     1     2 1
     2     1    31 1
     3     1    32 1
     4     1    33 1
     5     2     3 1
     6     2     4 1
     7     3    11 2
     8     3    34 1
     9     4     5 ar
    10     4     9 ar
    11     5     6 ar
    12     5    35 1
    13     6     7 ar
    14     6    36 1
    15     7     8 1
    16     7    10 ar
    17     9    10 ar
    18     9    11 1
    19    10    37 1
    20    11    12 1
    21    12    13 2
    22    12    17 1
    23    13    14 1
    24    13    19 1
    25    14    15 2
    26    14    16 1
    27    16    17 1
    28    16    38 1
    29    17    18 2
    30    19    20 ar
    31    19    24 ar
    32    20    21 ar
    33    20    39 1
    34    21    22 ar
    35    21    25 1
    36    22    23 ar
    37    22    40 1
    38    23    24 ar
    39    23    41 1
    40    24    42 1
    41    25    26 1
    42    25    43 1
    43    26    27 1
    44    26    44 1
    45    26    45 1
    46    27    28 1
    47    27    29 1
    48    27    46 1
    49    28    47 1
    50    29    30 1
    51    29    48 1
    52    29    49 1
    53    30    50 1
@<TRIPOS>SUBSTRUCTURE
     1 DFN         1 TEMP              0 ****  ****    0 ROOT
