@<TRIPOS>MOLECULE
molecule
   25    24     1     0     0
SMALL
bcc


@<TRIPOS>ATOM
      1 C1           0.0000     0.0000     0.0000 c3         1 DFP       0.174600
      2 C2           1.5210     0.0000     0.0000 c3         1 DFP      -0.120850
      3 C3          -0.5680     0.0000     1.4110 c3         1 DFP      -0.120850
      4 C1'         -0.0690     3.8440    -1.5990 c3         1 DFP       0.174600
      5 C2'          1.4480     3.8660    -1.4910 c3         1 DFP      -0.120850
      6 C3'         -0.6250     5.1920    -2.0340 c3         1 DFP      -0.120850
      7 P           -0.0300     1.3120    -2.2490 p5         1 DFP       1.329500
      8 O1P         -0.4660     1.1460    -0.6900 os         1 DFP      -0.533700
      9 O2P         -0.4550     2.8550    -2.5370 os         1 DFP      -0.533700
     10 O3P         -0.7820     0.3600    -3.1430 o          1 DFP      -0.742300
     11 H1          -0.3490    -0.8860    -0.5170 h1         1 DFP       0.054700
     12 H21          1.8820    -0.2210    -0.9970 hc         1 DFP       0.049867
     13 H22          1.8820    -0.7530     0.6900 hc         1 DFP       0.049867
     14 H23          1.8820     0.9740     0.3070 hc         1 DFP       0.049867
     15 H31         -0.3480    -0.9470     1.8880 hc         1 DFP       0.049867
     16 H32         -0.1190     0.8040     1.9810 hc         1 DFP       0.049867
     17 H33         -1.6410     0.1430     1.3680 hc         1 DFP       0.049867
     18 H1'         -0.4850     3.5930    -0.6310 h1         1 DFP       0.054700
     19 H2'1         1.8770     3.3030    -2.3110 hc         1 DFP       0.049867
     20 H2'2         1.7990     4.8900    -1.5330 hc         1 DFP       0.049867
     21 H2'3         1.7490     3.4200    -0.5500 hc         1 DFP       0.049867
     22 H3'1        -0.2030     5.4650    -2.9940 hc         1 DFP       0.049867
     23 H3'2        -1.7030     5.1280    -2.1180 hc         1 DFP       0.049867
     24 H3'3        -0.3650     5.9440    -1.2980 hc         1 DFP       0.049867
     25 HP1          1.3540     1.1290    -2.4080 hp         1 DFP      -0.090400
@<TRIPOS>BOND
     1     1     2 1
     2     1     3 1
     3     1     8 1
     4     1    11 1
     5     2    12 1
     6     2    13 1
     7     2    14 1
     8     3    15 1
     9     3    16 1
    10     3    17 1
    11     4     5 1
    12     4     6 1
    13     4     9 1
    14     4    18 1
    15     5    19 1
    16     5    20 1
    17     5    21 1
    18     6    22 1
    19     6    23 1
    20     6    24 1
    21     7     8 1
    22     7     9 1
    23     7    10 2
    24    25     7 1
@<TRIPOS>SUBSTRUCTURE
     1 DFP         1 TEMP              0 ****  ****    0 ROOT
