@<TRIPOS>MOLECULE
DFP
   25    24     1     0     0
SMALL
bcc


@<TRIPOS>ATOM
      1 C1          0.6660    0.1480    0.0270 c3        1 DFP      0.176100
      2 C2          1.0500   -1.3230    0.0890 c3        1 DFP     -0.108600
      3 C3          1.2510    0.8980    1.2130 c3        1 DFP     -0.108600
      4 C1'        -0.4470    3.7920   -1.7290 c3        1 DFP      0.176100
      5 C2'         0.1580    4.5510   -0.5590 c3        1 DFP     -0.108600
      6 C3'        -0.8340    4.7550   -2.8410 c3        1 DFP     -0.108600
      7 P           0.1860    1.3200   -2.2490 p5        1 DFP      1.491500
      8 O1P         1.1950    0.7020   -1.1680 os        1 DFP     -0.584700
      9 O2P         0.5230    2.8860   -2.2340 os        1 DFP     -0.584700
     10 O3P        -1.2150    1.0240   -1.9720 o         1 DFP     -0.828300
     11 H1         -0.4600    0.2530    0.0110 h1        1 DFP      0.070700
     12 H21         2.1560   -1.4350   -0.0030 hc        1 DFP      0.045617
     13 H22         0.5650   -1.8930   -0.7380 hc        1 DFP      0.045617
     14 H23         0.7170   -1.7510    1.0640 hc        1 DFP      0.045617
     15 H31         0.8930    0.4300    2.1600 hc        1 DFP      0.045617
     16 H32         2.3660    0.8570    1.1810 hc        1 DFP      0.045617
     17 H33         0.9380    1.9690    1.1970 hc        1 DFP      0.045617
     18 H1'        -1.3530    3.2060   -1.3930 h1        1 DFP      0.070700
     19 H2'1        0.4090    3.8550    0.2760 hc        1 DFP      0.045617
     20 H2'2        1.0930    5.0680   -0.8790 hc        1 DFP      0.045617
     21 H2'3       -0.5740    5.3090   -0.1910 hc        1 DFP      0.045617
     22 H3'1       -1.3450    4.2140   -3.6720 hc        1 DFP      0.045617
     23 H3'2        0.0760    5.2550   -3.2500 hc        1 DFP      0.045617
     24 H3'3       -1.5270    5.5290   -2.4360 hc        1 DFP      0.045617
     25 HP1         0.7000    0.9370   -3.3590 hp        1 DFP     -0.098400
@<TRIPOS>BOND
     1    1    2 1   
     2    1    3 1   
     3    1    8 1   
     4    1   11 1   
     5    2   12 1   
     6    2   13 1   
     7    2   14 1   
     8    3   15 1   
     9    3   16 1   
    10    3   17 1   
    11    4    5 1   
    12    4    6 1   
    13    4    9 1   
    14    4   18 1   
    15    5   19 1   
    16    5   20 1   
    17    5   21 1   
    18    6   22 1   
    19    6   23 1   
    20    6   24 1   
    21    7    8 1   
    22    7    9 1   
    23    7   10 2   
    24    7   25 1   
@<TRIPOS>SUBSTRUCTURE
     1 DFP         1 TEMP              0 ****  ****    0 ROOT
