@<TRIPOS>MOLECULE
molecule
   45    47     1     0     0
SMALL
bcc


@<TRIPOS>ATOM
      1 C1           0.0000     0.0000     0.0000 c3         1 DFQ       0.104300
      2 N2           1.4650     0.0000     0.0000 ns         1 DFQ      -0.585900
      3 C4           2.1390     0.0000     1.1680 c          1 DFQ       0.664300
      4 O5           1.5310    -0.0010     2.2210 o          1 DFQ      -0.614100
      5 C6           3.6030     0.0010     1.1670 ce         1 DFQ      -0.250200
      6 C7           4.2780     0.0010     2.3350 cf         1 DFQ      -0.024200
      7 C8           5.7490     0.0020     2.3340 ca         1 DFQ      -0.197100
      8 C9           6.4510     0.0020     3.5370 ca         1 DFQ      -0.063000
      9 C10          7.8560     0.0020     3.4790 ca         1 DFQ      -0.121300
     10 C11          8.6320     0.0020     4.6500 ca         1 DFQ      -0.154000
     11 C12          6.4600    -0.0040     1.1180 ca         1 DFQ       0.431200
     12 N13          7.7670    -0.0030     1.0900 nb         1 DFQ      -0.672000
     13 C14          8.4960     0.0030     2.2130 ca         1 DFQ       0.391600
     14 C15          9.8990     0.0030     2.1570 ca         1 DFQ      -0.127300
     15 C16         10.6240     0.0030     3.3090 ca         1 DFQ      -0.194000
     16 C17          9.9940     0.0020     4.5560 ca         1 DFQ       0.142100
     17 O18         10.7460     0.0010     5.6890 os         1 DFQ      -0.313900
     18 C19         12.1600     0.1230     5.5280 c3         1 DFQ       0.181400
     19 C20         12.7640    -1.2580     5.2660 c3         1 DFQ      -0.117100
     20 C21         12.7600     0.7030     6.7840 ca         1 DFQ      -0.054300
     21 C22         13.7020     1.7110     6.6980 ca         1 DFQ      -0.001600
     22 Cl23        14.1960     2.3080     5.1440 cl         1 DFQ      -0.074400
     23 C24         14.2540     2.2440     7.8520 ca         1 DFQ       0.143900
     24 F25         15.1750     3.2290     7.7690 f          1 DFQ      -0.121900
     25 C26         13.8590     1.7680     9.0910 ca         1 DFQ      -0.147000
     26 C27         12.9160     0.7600     9.1750 ca         1 DFQ      -0.099000
     27 C28         12.3630     0.2310     8.0220 ca         1 DFQ       0.042400
     28 Cl29        11.1730    -1.0290     8.1300 cl         1 DFQ      -0.068400
     29 H1          -0.3610     0.0000    -1.0210 h1         1 DFQ       0.042033
     30 H1A         -0.3610     0.8840     0.5110 h1         1 DFQ       0.042033
     31 H1B         -0.3610    -0.8850     0.5100 h1         1 DFQ       0.042033
     32 HN2          1.9660    -0.0000    -0.8670 hn         1 DFQ       0.313500
     33 H6           4.1440     0.0010     0.2290 ha         1 DFQ       0.128000
     34 H7           3.7370     0.0000     3.2740 ha         1 DFQ       0.161000
     35 H9           5.9470     0.2670     4.4580 ha         1 DFQ       0.149000
     36 H11          8.1520     0.0010     5.6220 ha         1 DFQ       0.151000
     37 H12          5.9110    -0.0090     0.1840 h4         1 DFQ       0.025100
     38 H15         10.4040     0.0040     1.1990 ha         1 DFQ       0.152000
     39 H16         11.7060     0.0030     3.2580 ha         1 DFQ       0.143000
     40 H19         12.3740     0.7760     4.6910 h1         1 DFQ       0.072700
     41 H20         13.5460    -1.4530     5.9900 hc         1 DFQ       0.053700
     42 H20A        13.1820    -1.2860     4.2670 hc         1 DFQ       0.053700
     43 H20B        11.9920    -2.0130     5.3560 hc         1 DFQ       0.053700
     44 H26         14.2910     2.1830     9.9940 ha         1 DFQ       0.160000
     45 H27         12.6060     0.3890    10.1450 ha         1 DFQ       0.157000
@<TRIPOS>BOND
     1     1     2 1
     2     2     3 1
     3     3     4 2
     4     3     5 1
     5     5     6 2
     6     6     7 1
     7     7     8 ar
     8     7    11 ar
     9     8     9 ar
    10     9    10 ar
    11     9    13 ar
    12    10    16 ar
    13    11    12 ar
    14    12    13 ar
    15    13    14 ar
    16    14    15 ar
    17    15    16 ar
    18    16    17 1
    19    17    18 1
    20    18    19 1
    21    18    20 1
    22    20    21 ar
    23    20    27 ar
    24    21    22 1
    25    21    23 ar
    26    23    24 1
    27    23    25 ar
    28    25    26 ar
    29    26    27 ar
    30    27    28 1
    31     1    29 1
    32     1    30 1
    33     1    31 1
    34     2    32 1
    35     5    33 1
    36     6    34 1
    37     8    35 1
    38    10    36 1
    39    11    37 1
    40    14    38 1
    41    15    39 1
    42    18    40 1
    43    19    41 1
    44    19    42 1
    45    19    43 1
    46    25    44 1
    47    26    45 1
@<TRIPOS>SUBSTRUCTURE
     1 DFQ         1 TEMP              0 ****  ****    0 ROOT
