@<TRIPOS>MOLECULE
DFQ
   45    49     1     0     0
SMALL
bcc


@<TRIPOS>ATOM
      1 C1           0.0000     0.0000     0.0000 c3         1 DFQ      -0.063000
      2 N2           1.4650     0.0000     0.0000 n7         1 DFQ      -0.029000
      3 C4           2.1390     0.0000     1.1680 c3         1 DFQ       0.352000
      4 O5           1.5310    -0.0010     2.2210 o          1 DFQ      -0.434000
      5 C6           3.6030     0.0010     1.1670 c2         1 DFQ      -0.171000
      6 C7           4.2780     0.0010     2.3350 c2         1 DFQ       0.035000
      7 C8           5.7490     0.0020     2.3340 c3         1 DFQ      -0.049000
      8 C9           6.4510     0.0020     3.5370 c2         1 DFQ      -0.149000
      9 C10          7.8560     0.0020     3.4790 ca         1 DFQ      -0.002000
     10 C11          8.6320     0.0020     4.6500 ca         1 DFQ      -0.152000
     11 C12          6.4600    -0.0040     1.1180 c2         1 DFQ      -0.106000
     12 N13          7.7670    -0.0030     1.0900 n2         1 DFQ       0.003000
     13 C14          8.4960     0.0030     2.2130 ca         1 DFQ      -0.093000
     14 C15          9.8990     0.0030     2.1570 ca         1 DFQ      -0.016000
     15 C16         10.6240     0.0030     3.3090 ca         1 DFQ      -0.205000
     16 C17          9.9940     0.0020     4.5560 ca         1 DFQ       0.118000
     17 O18         10.7460     0.0010     5.6890 os         1 DFQ      -0.177000
     18 C19         12.1600     0.1230     5.5280 c3         1 DFQ       0.091000
     19 C20         12.7640    -1.2580     5.2660 c3         1 DFQ      -0.155000
     20 C21         12.7600     0.7030     6.7840 ca         1 DFQ      -0.064000
     21 C22         13.7020     1.7110     6.6980 ca         1 DFQ      -0.138000
     22 Cl23        14.1960     2.3080     5.1440 cl         1 DFQ       0.096000
     23 C24         14.2540     2.2440     7.8520 ca         1 DFQ       0.077000
     24 F25         15.1750     3.2290     7.7690 f          1 DFQ      -0.083000
     25 C26         13.8590     1.7680     9.0910 ca         1 DFQ      -0.110000
     26 C27         12.9160     0.7600     9.1750 ca         1 DFQ      -0.075000
     27 C28         12.3630     0.2310     8.0220 ca         1 DFQ      -0.103000
     28 Cl29        11.1730    -1.0290     8.1300 cl         1 DFQ       0.096000
     29 H1          -0.3610     0.0010    -1.0210 h1         1 DFQ       0.050000
     30 H1A         -0.3610     0.8840     0.5110 h1         1 DFQ       0.050000
     31 H1B         -0.3610    -0.8850     0.5100 h1         1 DFQ       0.050000
     32 HN2          1.9650     0.0310    -0.8660 hn         1 DFQ       0.094000
     33 H6           2.9920    -0.8740     1.3510 DU         1 DFQ       0.030000
     34 H7           4.8900    -0.8740     2.1510 DU         1 DFQ       0.090000
     35 H9           5.9470     0.2680     4.4580 ha         1 DFQ       0.131000
     36 H11          8.1520     0.0010     5.6220 ha         1 DFQ       0.126000
     37 H12          5.9110    -0.0060     0.1840 h4         1 DFQ       0.131000
     38 H15         10.4040     0.0040     1.1990 ha         1 DFQ       0.115000
     39 H16         11.7060     0.0030     3.2580 ha         1 DFQ       0.126000
     40 H19         12.3740     0.7760     4.6910 h1         1 DFQ       0.082000
     41 H20         13.5460    -1.4530     5.9900 hc         1 DFQ       0.060667
     42 H20A        13.1820    -1.2860     4.2670 hc         1 DFQ       0.060667
     43 H20B        11.9920    -2.0130     5.3560 hc         1 DFQ       0.060667
     44 H26         14.2910     2.1830     9.9940 ha         1 DFQ       0.126000
     45 H27         12.6060     0.3890    10.1450 ha         1 DFQ       0.121000
@<TRIPOS>BOND
     1     1     2 1   
     2     1    29 1   
     3     1    30 1   
     4     1    31 1   
     5     2     3 1   
     6     2    32 1   
     7     3     4 1   
     8     3     5 1   
     9     3    33 1   
    10     5     6 1   
    11     5    33 1   
    12     6     7 1   
    13     6    34 1   
    14     7     8 1   
    15     7    11 1   
    16     7    34 1   
    17     8     9 1   
    18     8    35 1   
    19     9    10 1   
    20     9    13 1   
    21    10    16 1   
    22    10    36 1   
    23    11    12 1   
    24    11    37 1   
    25    12    13 1   
    26    13    14 1   
    27    14    15 1   
    28    14    38 1   
    29    15    16 1   
    30    15    39 1   
    31    16    17 1   
    32    17    18 1   
    33    18    19 1   
    34    18    20 1   
    35    18    40 1   
    36    19    41 1   
    37    19    42 1   
    38    19    43 1   
    39    20    21 1   
    40    20    27 1   
    41    21    22 1   
    42    21    23 1   
    43    23    24 1   
    44    23    25 1   
    45    25    26 1   
    46    25    44 1   
    47    26    27 1   
    48    26    45 1   
    49    27    28 1   
@<TRIPOS>SUBSTRUCTURE
     1 DFQ         1 TEMP              0 ****  ****    0 ROOT
