@<TRIPOS>MOLECULE
DFS
   42    44     1     0     0
SMALL
bcc


@<TRIPOS>ATOM
      1 C1           0.0000     0.0000     0.0000 ca         1 DFS      -0.373500
      2 C2           1.4070     0.0000     0.0000 ca         1 DFS       0.480300
      3 N3           2.0730     0.0000     1.1520 nb         1 DFS      -0.491000
      4 C4           1.4500     0.0000     2.3100 ca         1 DFS       0.365200
      5 C5           0.0600    -0.0000     2.3830 ca         1 DFS      -0.214700
      6 C6          -0.6830     0.0050     1.2070 ca         1 DFS      -0.066000
      7 N7          -0.3840     0.0000    -1.3260 na         1 DFS       0.268700
      8 C8           0.7510    -0.0000    -2.0740 cc         1 DFS       0.250700
      9 N9           1.7980    -0.0010    -1.3000 nd         1 DFS      -0.580700
     10 N10         -0.5830    -0.0000     3.6260 ns         1 DFS       0.003900
     11 C11         -1.8210    -0.5190     3.7450 c          1 DFS       0.589700
     12 C12         -2.5500    -0.4040     5.0230 ca         1 DFS      -0.191600
     13 O13         -2.3380    -1.0830     2.7990 o          1 DFS      -0.614100
     14 C14         -3.3770     0.6960     5.2630 ca         1 DFS       0.111900
     15 C15         -4.0630     0.7930     6.4660 ca         1 DFS       0.030600
     16 C16         -3.9280    -0.2020     7.4250 ca         1 DFS      -0.120000
     17 C17         -3.1100    -1.2920     7.1900 ca         1 DFS      -0.111000
     18 C18         -2.4220    -1.4010     5.9970 ca         1 DFS       0.138900
     19 F19         -1.6290    -2.4710     5.7700 f          1 DFS      -0.115900
     20 F20         -3.5060     1.6640     4.3280 f          1 DFS      -0.117900
     21 N21         -4.8920     1.8940     6.7130 nu         1 DFS      -0.392500
     22 S22         -5.0060     2.5190     8.2420 s6         1 DFS       0.953900
     23 C23         -3.3120     3.0220     8.6530 c3         1 DFS      -0.017600
     24 C24         -3.2860     3.6220    10.0600 c3         1 DFS       0.006600
     25 C25         -1.8580     4.0470    10.4080 c3         1 DFS       0.008900
     26 O26         -5.8420     3.6580     8.0940 o          1 DFS      -0.573800
     27 O27         -5.4070     1.4150     9.0430 o          1 DFS      -0.573800
     28 H1           2.0300    -0.0040     3.2250 h4         1 DFS      -0.019900
     29 H2          -1.7660     0.0050     1.2340 ha         1 DFS       0.152000
     30 H3          -1.3230     0.0010    -1.6710 hn         1 DFS       0.131700
     31 H4           0.7810     0.0000    -3.1570 h5         1 DFS       0.028800
     32 H6          -0.1270     0.3960     4.4240 hn         1 DFS       0.168500
     33 H7          -4.4650    -0.1240     8.3630 ha         1 DFS       0.185000
     34 H8          -3.0100    -2.0650     7.9430 ha         1 DFS       0.130000
     35 H9          -5.3300     2.3680     5.9480 hn         1 DFS       0.359800
     36 H10         -2.6600     2.1580     8.6160 h1         1 DFS       0.069700
     37 H11         -2.9720     3.7620     7.9390 h1         1 DFS       0.069700
     38 H12         -3.6260     2.8820    10.7750 hc         1 DFS       0.027700
     39 H13         -3.9380     4.4860    10.0970 hc         1 DFS       0.027700
     40 H14         -1.5180     4.7870     9.6940 hc         1 DFS       0.005033
     41 H15         -1.2050     3.1830    10.3700 hc         1 DFS       0.005033
     42 H16         -1.8390     4.4710    11.4040 hc         1 DFS       0.005033
@<TRIPOS>BOND
     1     1     2 ar  
     2     1     6 ar  
     3     1     7 1   
     4     2     3 ar  
     5     2     9 1   
     6     3     4 ar  
     7     4     5 ar  
     8     4    28 1   
     9     5     6 ar  
    10     5    10 1   
    11     6    29 1   
    12     7     8 1   
    13     7    30 1   
    14     8     9 2   
    15     8    31 1   
    16    10    11 1   
    17    10    32 1   
    18    11    12 1   
    19    11    13 2   
    20    12    14 ar  
    21    12    18 ar  
    22    14    15 ar  
    23    14    20 1   
    24    15    16 ar  
    25    15    21 1   
    26    16    17 ar  
    27    16    33 1   
    28    17    18 ar  
    29    17    34 1   
    30    18    19 1   
    31    21    22 1   
    32    21    35 1   
    33    22    23 1   
    34    22    26 2   
    35    22    27 2   
    36    23    24 1   
    37    23    36 1   
    38    23    37 1   
    39    24    25 1   
    40    24    38 1   
    41    24    39 1   
    42    25    40 1   
    43    25    41 1   
    44    25    42 1   
@<TRIPOS>SUBSTRUCTURE
     1 DFS         1 TEMP              0 ****  ****    0 ROOT
