@<TRIPOS>MOLECULE
molecule
   42    44     1     0     0
SMALL
bcc


@<TRIPOS>ATOM
      1 C1           0.0000     0.0000     0.0000 ca         1 DFS      -0.198500
      2 C2           1.4070     0.0000     0.0000 ca         1 DFS       0.564300
      3 N3           2.0730     0.0000     1.1520 nb         1 DFS      -0.623000
      4 C4           1.4500     0.0000     2.3100 ca         1 DFS       0.397200
      5 C5           0.0600    -0.0000     2.3830 ca         1 DFS      -0.067700
      6 C6          -0.6830     0.0050     1.2070 ca         1 DFS      -0.101000
      7 N7          -0.3840     0.0000    -1.3260 na         1 DFS      -0.265300
      8 C8           0.7510    -0.0000    -2.0740 cc         1 DFS       0.443700
      9 N9           1.7980    -0.0010    -1.3000 nd         1 DFS      -0.664700
     10 N10         -0.5830    -0.0000     3.6260 ns         1 DFS      -0.455100
     11 C11         -1.8210    -0.5190     3.7450 c          1 DFS       0.682700
     12 C12         -2.5500    -0.4040     5.0230 ca         1 DFS      -0.205600
     13 O13         -2.3380    -1.0830     2.7990 o          1 DFS      -0.566100
     14 C14         -3.3770     0.6960     5.2630 ca         1 DFS       0.153900
     15 C15         -4.0630     0.7930     6.4660 ca         1 DFS       0.097600
     16 C16         -3.9280    -0.2020     7.4250 ca         1 DFS      -0.122000
     17 C17         -3.1100    -1.2920     7.1900 ca         1 DFS      -0.155000
     18 C18         -2.4220    -1.4010     5.9970 ca         1 DFS       0.171900
     19 F19         -1.6290    -2.4710     5.7700 f          1 DFS      -0.118900
     20 F20         -3.5060     1.6640     4.3280 f          1 DFS      -0.123900
     21 N21         -4.8920     1.8940     6.7130 nu         1 DFS      -0.753500
     22 S22         -5.0060     2.5190     8.2420 s6         1 DFS       1.322900
     23 C23         -3.3120     3.0220     8.6530 c3         1 DFS      -0.225600
     24 C24         -3.2860     3.6220    10.0600 c3         1 DFS      -0.063400
     25 C25         -1.8580     4.0470    10.4080 c3         1 DFS      -0.082100
     26 O26         -5.8420     3.6580     8.0940 o          1 DFS      -0.618300
     27 O27         -5.4070     1.4150     9.0430 o          1 DFS      -0.618300
     28 H1           2.0300    -0.0040     3.2250 h4         1 DFS       0.026100
     29 H2          -1.7660     0.0050     1.2340 ha         1 DFS       0.172000
     30 H3          -1.3230     0.0010    -1.6710 hn         1 DFS       0.307700
     31 H4           0.7810     0.0000    -3.1570 h5         1 DFS       0.078800
     32 H6          -0.1270     0.3960     4.4240 hn         1 DFS       0.331500
     33 H7          -4.4650    -0.1240     8.3630 ha         1 DFS       0.203000
     34 H8          -3.0100    -2.0650     7.9430 ha         1 DFS       0.164000
     35 H9          -5.3300     2.3680     5.9480 hn         1 DFS       0.475800
     36 H10         -2.6600     2.1580     8.6160 h1         1 DFS       0.100200
     37 H11         -2.9720     3.7620     7.9390 h1         1 DFS       0.100200
     38 H12         -3.6260     2.8820    10.7750 hc         1 DFS       0.056700
     39 H13         -3.9380     4.4860    10.0970 hc         1 DFS       0.056700
     40 H14         -1.5180     4.7870     9.6940 hc         1 DFS       0.040033
     41 H15         -1.2050     3.1830    10.3700 hc         1 DFS       0.040033
     42 H16         -1.8390     4.4710    11.4040 hc         1 DFS       0.040033
@<TRIPOS>BOND
     1    26    22 2
     2    27    22 2
     3    22    21 1
     4    22    23 1
     5    25    24 1
     6    24    23 1
     7    21    15 1
     8    15    16 ar
     9    15    14 ar
    10    16    17 ar
    11    20    14 1
    12    14    12 ar
    13    17    18 ar
    14    12    18 ar
    15    12    11 1
    16    18    19 1
    17    11    10 1
    18    11    13 2
    19    10     5 1
    20     5     4 ar
    21     5     6 ar
    22     4     3 ar
    23     6     1 ar
    24     3     2 ar
    25     1     2 ar
    26     1     7 1
    27     2     9 1
    28     7     8 1
    29     9     8 2
    30     4    28 1
    31     6    29 1
    32     7    30 1
    33     8    31 1
    34    10    32 1
    35    16    33 1
    36    17    34 1
    37    21    35 1
    38    23    36 1
    39    23    37 1
    40    24    38 1
    41    24    39 1
    42    25    40 1
    43    25    41 1
    44    25    42 1
@<TRIPOS>SUBSTRUCTURE
     1 DFS         1 TEMP              0 ****  ****    0 ROOT
