@<TRIPOS>MOLECULE
DFU
   23    23     1     0     0
SMALL
bcc


@<TRIPOS>ATOM
      1 C1           0.0000     0.0000     0.0000 c3         1 DFU       0.120800
      2 C2           1.5300     0.0000     0.0000 c3         1 DFU       0.150100
      3 C3           2.0680     0.0000     1.4320 c3         1 DFU       0.164100
      4 C4           1.4410    -1.1330     2.2510 c3         1 DFU       0.146100
      5 C5          -0.0950    -1.0640     2.1780 c3         1 DFU       0.109500
      6 C6          -0.7530    -2.2160     2.9400 c3         1 DFU       0.010900
      7 O4           1.8830    -2.3970     1.7540 oh         1 DFU      -0.579800
      8 O3           3.4830    -0.1580     1.4240 oh         1 DFU      -0.576800
      9 O2           1.9960     1.1770    -0.6570 oh         1 DFU      -0.584800
     10 N5          -0.5620    -1.1030     0.7810 n7         1 DFU      -0.570200
     11 H11         -0.3490     0.9360     0.4190 h1         1 DFU       0.027200
     12 H12         -0.3490    -0.0840    -1.0220 h1         1 DFU       0.027200
     13 H2           1.8900    -0.8790    -0.5210 h1         1 DFU       0.023700
     14 H3           1.8190     0.9460     1.8970 h1         1 DFU       0.013700
     15 H4           1.7470    -1.0290     3.2850 h1         1 DFU       0.005700
     16 H5          -0.4150    -0.1280     2.6190 h1         1 DFU       0.034700
     17 H61         -0.4890    -3.1560     2.4720 hc         1 DFU       0.008700
     18 H62         -1.8290    -2.0930     2.9220 hc         1 DFU       0.008700
     19 H63         -0.4060    -2.2140     3.9660 hc         1 DFU       0.008700
     20 HO4          2.5040    -2.7730     2.3560 ho         1 DFU       0.397000
     21 HO3          3.8820     0.5520     1.8980 ho         1 DFU       0.391000
     22 HO2          2.3170     0.9520    -1.5150 ho         1 DFU       0.394000
     23 HN5         -0.2980    -1.9740     0.3650 hn         1 DFU       0.267800
@<TRIPOS>BOND
     1     1     2 1   
     2     1    10 1   
     3     1    11 1   
     4     1    12 1   
     5     2     3 1   
     6     2     9 1   
     7     2    13 1   
     8     3     4 1   
     9     3     8 1   
    10     3    14 1   
    11     4     5 1   
    12     4     7 1   
    13     4    15 1   
    14     5     6 1   
    15     5    10 1   
    16     5    16 1   
    17     6    17 1   
    18     6    18 1   
    19     6    19 1   
    20     7    20 1   
    21     8    21 1   
    22     9    22 1   
    23    10    23 1   
@<TRIPOS>SUBSTRUCTURE
     1 DFU         1 TEMP              0 ****  ****    0 ROOT
