@<TRIPOS>MOLECULE
molecule
   31    33     1     0     0
SMALL
bcc


@<TRIPOS>ATOM
      1 C1           0.0000     0.0000     0.0000 ca         1 DFV       0.163100
      2 C2           1.3930     0.0000     0.0000 ca         1 DFV      -0.195000
      3 C3           2.0750     0.0000     1.1830 ca         1 DFV      -0.028000
      4 C4           1.3720     0.0010     2.3920 ca         1 DFV      -0.261600
      5 C5          -0.0300     0.0190     2.4060 ca         1 DFV       0.178100
      6 C6          -0.7070     0.0090     1.1910 ca         1 DFV      -0.200000
      7 C7           2.1060    -0.0200     3.6710 c          1 DFV       0.581700
      8 C8           1.2440     0.1460     4.9130 c3         1 DFV      -0.205400
      9 C9          -0.0750    -0.5800     4.6110 c3         1 DFV       0.190400
     10 O1          -0.7490     0.0680     3.5460 os         1 DFV      -0.298900
     11 C10         -0.9480    -0.5650     5.8390 ca         1 DFV      -0.104300
     12 C11         -1.8360     0.4720     6.0400 ca         1 DFV      -0.096000
     13 C12         -2.6380     0.4890     7.1650 ca         1 DFV      -0.153000
     14 C13         -2.5490    -0.5370     8.0940 ca         1 DFV       0.114100
     15 C14         -1.6530    -1.5750     7.8930 ca         1 DFV      -0.153000
     16 C15         -0.8580    -1.5900     6.7630 ca         1 DFV      -0.096000
     17 O2           3.3100    -0.1600     3.7270 o          1 DFV      -0.516100
     18 O3          -0.6710    -0.0110    -1.1800 oh         1 DFV      -0.520100
     19 O4          -3.3370    -0.5230     9.2020 oh         1 DFV      -0.521100
     20 H2           1.9350    -0.0070    -0.9380 ha         1 DFV       0.148000
     21 H3           3.1580     0.0000     1.1840 ha         1 DFV       0.157000
     22 H6          -1.7900     0.0090     1.1750 ha         1 DFV       0.158000
     23 H81          1.7320    -0.3070     5.7670 hc         1 DFV       0.087200
     24 H82          1.0570     1.1970     5.0970 hc         1 DFV       0.087200
     25 H9           0.1380    -1.6040     4.3290 h1         1 DFV       0.063700
     26 H11         -1.9060     1.2740     5.3150 ha         1 DFV       0.142000
     27 H12         -3.3360     1.3030     7.3210 ha         1 DFV       0.144000
     28 H14         -1.5820    -2.3780     8.6170 ha         1 DFV       0.144000
     29 H15         -0.1570    -2.4010     6.6050 ha         1 DFV       0.142000
     30 HO3         -0.8630     0.8750    -1.4400 ho         1 DFV       0.428000
     31 HO4         -2.8930    -0.0670     9.8970 ho         1 DFV       0.421000
@<TRIPOS>BOND
     1     1     2 ar
     2     1     6 ar
     3     1    18 1
     4     2     3 ar
     5     2    20 1
     6     3     4 ar
     7     3    21 1
     8     4     5 ar
     9     4     7 1
    10     5     6 ar
    11     5    10 1
    12     6    22 1
    13     7     8 1
    14     7    17 2
    15     8     9 1
    16     8    23 1
    17     8    24 1
    18     9    10 1
    19     9    11 1
    20     9    25 1
    21    11    12 ar
    22    11    16 ar
    23    12    13 ar
    24    12    26 1
    25    13    14 ar
    26    13    27 1
    27    14    15 ar
    28    14    19 1
    29    15    16 ar
    30    15    28 1
    31    16    29 1
    32    18    30 1
    33    19    31 1
@<TRIPOS>SUBSTRUCTURE
     1 DFV         1 TEMP              0 ****  ****    0 ROOT
