@<TRIPOS>MOLECULE
DFW
   40    42     1     0     0
SMALL
bcc


@<TRIPOS>ATOM
      1 C2          0.9880    0.9810   -0.7640 c1        1 DFW      0.498800
      2 C10         3.4670    0.3150    3.1290 cc        1 DFW      0.301500
      3 C11         4.7880    0.4830    3.6290 ce        1 DFW     -0.172100
      4 C12         5.9330    0.9130    2.7460 c3        1 DFW     -0.017000
      5 C13         7.1640    0.1200    3.1030 c2        1 DFW     -0.164200
      6 C14         7.3580   -0.4560    4.3100 ce        1 DFW     -0.142000
      7 C15         6.3940   -0.1280    5.3740 ce        1 DFW     -0.161100
      8 C16         5.2100    0.1920    4.8670 c1        1 DFW     -0.022800
      9 C19         0.8400   -0.0910    5.7920 c2        1 DFW     -0.135200
     10 C20         0.2680   -0.7990    6.7920 ce        1 DFW     -0.159000
     11 C21         1.0400   -1.9220    7.3510 ce        1 DFW     -0.134100
     12 C22         1.8460   -2.4450    6.4310 c1        1 DFW     -0.089800
     13 N1          1.4100    0.7430    0.3170 n1        1 DFW     -0.799800
     14 C6          1.8620    0.4750    1.5670 cc        1 DFW      0.536700
     15 O6          3.2480    0.6570    1.7830 os        1 DFW     -0.376800
     16 C5          1.2410    0.0280    2.7310 cd        1 DFW     -0.278200
     17 C4         -0.2180   -0.2460    2.8850 cf        1 DFW      0.664800
     18 N3         -0.7000   -1.4540    2.9320 n2        1 DFW     -0.822100
     19 C17         2.2790   -2.0140    5.2550 c2        1 DFW     -0.175300
     20 C1          2.2730   -0.0810    3.7360 cd        1 DFW     -0.105600
     21 C18         2.1510   -0.5060    5.1420 c3        1 DFW      0.037000
     22 C23        -2.2140    1.8200    4.8620 c         1 DFW      0.893600
     23 C8         -2.2630    0.9750    3.5570 c3        1 DFW      0.030800
     24 O24        -1.1120    2.3520    5.1960 o         1 DFW     -0.841800
     25 O3         -3.2860    1.9280    5.5120 o         1 DFW     -0.841800
     26 H2         -0.0050   -2.1660    2.8660 hn        1 DFW      0.375400
     27 H12         5.6430    0.7060    1.6810 hc        1 DFW      0.081200
     28 H13         6.1630    2.0080    2.8320 hc        1 DFW      0.081200
     29 H14         7.9180    0.0550    2.3060 ha        1 DFW      0.128000
     30 H15         8.2380   -1.0600    4.5570 ha        1 DFW      0.132000
     31 H16         6.7140   -0.0590    6.4160 ha        1 DFW      0.155000
     32 H19         2.9810    0.0070    5.7280 hc        1 DFW      0.098700
     33 H20         0.3890    0.8600    5.4350 ha        1 DFW      0.215000
     34 H21        -0.6860   -0.5100    7.2500 ha        1 DFW      0.163000
     35 H22         0.9900   -2.1620    8.4150 ha        1 DFW      0.140000
     36 H9         -0.4510    1.7310    3.0970 hn        1 DFW      0.405800
     37 H17         2.5830   -2.6120    4.3950 ha        1 DFW      0.142000
     38 H8C1       -2.6450   -0.0460    3.8190 h1        1 DFW      0.057200
     39 H8C2       -3.0070    1.4560    2.8620 h1        1 DFW      0.057200
     40 N9         -1.0060    0.9280    2.8330 nh        1 DFW     -0.756200
@<TRIPOS>BOND
     1    1   13 3
     2    2    3 1
     3    2   15 1
     4    2   20 2
     5    3    4 1
     6    3    8 2
     7    4    5 1
     8    4   27 1
     9    4   28 1
    10    5    6 2
    11    5   29 1
    12    6    7 1
    13    6   30 1
    14    7    8 2
    15    7   31 1
    16    9   10 2
    17    9   21 1
    18    9   33 1
    19   10   11 1
    20   10   34 1
    21   11   12 2
    22   11   35 1
    23   12   19 2
    24   13   14 1
    25   14   15 1
    26   14   16 2
    27   16   17 1
    28   16   20 1
    29   17   18 2
    30   17   40 1
    31   18   26 1
    32   19   21 1
    33   19   37 1
    34   20   21 1
    35   21   32 1
    36   22   23 1
    37   22   24 1
    38   22   25 1
    39   23   38 1
    40   23   39 1
    41   23   40 1
    42   36   40 1
@<TRIPOS>SUBSTRUCTURE
     1 DFW         1 TEMP              0 ****  ****    0 ROOT
