@<TRIPOS>MOLECULE
DFY
   45    48     1     0     0
SMALL
bcc


@<TRIPOS>ATOM
      1 C2          0.5160    0.1290   -0.2790 c1        1 DFY      0.032000
      2 C10         3.4900    0.4410    3.0570 c2        1 DFY     -0.092000
      3 C11         4.7440    0.2360    3.5610 c2        1 DFY      0.072000
      4 C12         5.9070    0.5830    2.6870 c3        1 DFY     -0.136000
      5 C13         7.2360    0.4910    3.3300 c2        1 DFY     -0.120000
      6 C14         7.4060    0.0230    4.5800 c2        1 DFY     -0.163000
      7 C15         6.2720   -0.4480    5.3370 c2        1 DFY     -0.062000
      8 C16         5.0130   -0.3500    4.8510 c2        1 DFY     -0.172000
      9 C19         2.4500    0.6010    5.9720 c2        1 DFY     -0.099000
     10 C20         2.0980    0.2670    7.2540 c2        1 DFY     -0.197000
     11 C21         1.0060   -0.6140    7.4850 c2        1 DFY     -0.073000
     12 C22         0.2580   -1.0710    6.4260 c2        1 DFY     -0.195000
     13 N1          1.8140    0.4690   -0.0620 n2        1 DFY     -0.233000
     14 C6          2.1730    0.5500    1.2220 c2        1 DFY      0.209000
     15 O6          3.4780    0.7360    1.6490 os        1 DFY     -0.125000
     16 C5          1.2860    0.3950    2.3760 c2        1 DFY     -0.327000
     17 C4         -0.1140    0.2910    2.0920 c2        1 DFY      0.296000
     18 N3         -0.4100    0.0150    0.7440 n3        1 DFY     -0.249000
     19 C17         0.5710   -0.7350    5.0900 c1        1 DFY     -0.264000
     20 C1          2.1120    0.3040    3.5400 c2        1 DFY      0.271000
     21 C18         1.7120    0.0750    4.8630 c2        1 DFY     -0.190000
     22 C23        -2.0350   -1.7320    3.3000 c3        1 DFY     -0.075000
     23 C8         -2.3250   -0.2510    2.9800 c3        1 DFY     -0.073000
     24 O24        -3.2250   -2.3470    3.7480 oh        1 DFY     -0.320000
     25 CAA        -0.9210    1.3910    4.1400 c3        1 DFY     -0.088000
     26 H2         -1.3450   -0.2100    0.4780 hn        1 DFY      0.261000
     27 H12         5.8850   -0.0900    1.7780 hc        1 DFY      0.141000
     28 H13         5.7590    1.6310    2.2940 hc        1 DFY      0.141000
     29 H14         8.0850    0.8250    2.7130 ha        1 DFY      0.140000
     30 H15         8.3990   -0.0360    5.0490 ha        1 DFY      0.142000
     31 H16         6.4650   -0.9120    6.3180 ha        1 DFY      0.144000
     32 H19         4.1610   -0.7710    5.4130 ha        1 DFY      0.168000
     33 H20         3.2680    1.3150    5.7860 ha        1 DFY      0.120000
     34 H21         2.6400    0.6830    8.1140 ha        1 DFY      0.126000
     35 H22         0.7750   -0.9010    8.5220 ha        1 DFY      0.120000
     36 H17        -0.6090   -1.7260    6.6010 ha        1 DFY      0.120000
     37 H231       -1.2000   -1.8190    4.0560 h1        1 DFY      0.130000
     38 H232       -1.7560   -2.2840    2.3630 h1        1 DFY      0.130000
     39 H8C1       -2.8560   -0.1720    1.9910 h1        1 DFY      0.101000
     40 H8C2       -3.0290    0.1550    3.7620 h1        1 DFY      0.101000
     41 H24        -3.3140   -2.1440    4.6860 ho        1 DFY      0.199000
     42 HAA1       -1.0250    0.7810    5.0810 h1        1 DFY      0.103667
     43 HAA2        0.0930    1.8660    4.1220 h1        1 DFY      0.103667
     44 HAA3       -1.7080    2.1960    4.1380 h1        1 DFY      0.103667
     45 N9         -1.1380    0.5880    2.9640 n3        1 DFY     -0.221000
@<TRIPOS>BOND
     1    1   13 1
     2    1   18 1
     3    2    3 1
     4    2   15 1
     5    2   20 1
     6    3    4 1
     7    3    8 1
     8    4    5 1
     9    4   27 1
    10    4   28 1
    11    5    6 1
    12    5   29 1
    13    6    7 1
    14    6   30 1
    15    7    8 1
    16    7   31 1
    17    8   32 1
    18    9   10 1
    19    9   21 1
    20    9   33 1
    21   10   11 1
    22   10   34 1
    23   11   12 1
    24   11   35 1
    25   12   19 1
    26   12   36 1
    27   13   14 1
    28   14   15 1
    29   14   16 1
    30   16   17 1
    31   16   20 1
    32   17   18 1
    33   17   45 1
    34   18   26 1
    35   19   21 1
    36   20   21 1
    37   22   23 1
    38   22   24 1
    39   22   37 1
    40   22   38 1
    41   23   39 1
    42   23   40 1
    43   23   45 1
    44   24   41 1
    45   25   42 1
    46   25   43 1
    47   25   44 1
    48   25   45 1
@<TRIPOS>SUBSTRUCTURE
     1 DFY         1 TEMP              0 ****  ****    0 ROOT
