@<TRIPOS>MOLECULE
molecule
   43    46     1     0     0
SMALL
bcc


@<TRIPOS>ATOM
      1 C2           0.0000     0.0000     0.0000 ca         1 DFZ       0.742900
      2 C10          3.5080    -0.0010     2.8160 cc         1 DFZ      -0.007300
      3 C11          4.8110    -0.0010     3.5110 ca         1 DFZ      -0.042800
      4 C12          5.7150     1.0430     3.3090 ca         1 DFZ      -0.106000
      5 C13          6.9290     1.0370     3.9620 ca         1 DFZ      -0.130500
      6 C14          7.2540    -0.0020     4.8140 ca         1 DFZ      -0.120000
      7 C15          6.3630    -1.0420     5.0200 ca         1 DFZ      -0.130500
      8 C16          5.1420    -1.0440     4.3790 ca         1 DFZ      -0.106000
      9 C19          1.2810    -1.0420     5.4650 ca         1 DFZ      -0.121000
     10 C20          1.0390    -1.0390     6.8230 ca         1 DFZ      -0.127500
     11 C21          1.5050     0.0010     7.6090 ca         1 DFZ      -0.128000
     12 C22          2.2200     1.0390     7.0390 ca         1 DFZ      -0.127500
     13 N1           1.3160     0.0000     0.0000 nb         1 DFZ      -0.811000
     14 C6           1.9990     0.0000     1.1450 ca         1 DFZ       0.520800
     15 C5           1.2790     0.0050     2.3530 ca         1 DFZ      -0.393400
     16 C4          -0.1230     0.0000     2.3040 ca         1 DFZ       0.775200
     17 N3          -0.7130    -0.0000     1.1110 nb         1 DFZ      -0.846000
     18 N90          3.3320    -0.0000     1.4510 na         1 DFZ      -0.258100
     19 C17          2.4730     1.0440     5.6830 ca         1 DFZ      -0.121000
     20 C1           2.2730    -0.0010     3.4300 cd         1 DFZ      -0.056400
     21 C18          2.0050    -0.0010     4.8850 ca         1 DFZ      -0.021800
     22 C23         -2.9180    -0.0010     4.8070 c3         1 DFZ       0.118400
     23 C8          -2.3370    -0.0000     3.3920 c3         1 DFZ       0.238800
     24 O24         -2.4760     1.1650     5.5040 oh         1 DFZ      -0.607800
     25 H2          -0.5190    -0.0000    -0.9510 h5         1 DFZ       0.056100
     26 H12          5.4620     1.8580     2.6410 ha         1 DFZ       0.139000
     27 H13          7.6310     1.8470     3.8050 ha         1 DFZ       0.133500
     28 H14          8.2110    -0.0030     5.3230 ha         1 DFZ       0.131000
     29 H15          6.6220    -1.8510     5.6910 ha         1 DFZ       0.133500
     30 H16          4.4460    -1.8580     4.5400 ha         1 DFZ       0.139000
     31 H19          0.9160    -1.8560     4.8510 ha         1 DFZ       0.138500
     32 H20          0.4780    -1.8480     7.2740 ha         1 DFZ       0.129500
     33 H21          1.3110     0.0000     8.6740 ha         1 DFZ       0.128000
     34 H22          2.5830     1.8490     7.6600 ha         1 DFZ       0.129500
     35 H9          -0.4190     0.0470     4.3560 hn         1 DFZ       0.469800
     36 H90          4.0730     0.0000     0.7780 hn         1 DFZ       0.309700
     37 H17          3.0350     1.8560     5.2390 ha         1 DFZ       0.138500
     38 H231        -2.5820    -0.8860     5.3350 h1         1 DFZ       0.031700
     39 H232        -4.0000    -0.0010     4.7530 h1         1 DFZ       0.031700
     40 H8C1        -2.6720    -0.8850     2.8630 h1         1 DFZ       0.058700
     41 H8C2        -2.6720     0.8850     2.8640 h1         1 DFZ       0.058700
     42 H24         -3.1150     1.4030     6.1540 ho         1 DFZ       0.404000
     43 N9          -0.8740    -0.0000     3.4660 nu         1 DFZ      -0.893900
@<TRIPOS>BOND
     1     1    13 ar
     2     1    17 ar
     3     1    25 1
     4     2     3 1
     5     2    18 1
     6     2    20 2
     7     3     4 ar
     8     3     8 ar
     9     4     5 ar
    10     4    26 1
    11     5     6 ar
    12     5    27 1
    13     6     7 ar
    14     6    28 1
    15     7     8 ar
    16     7    29 1
    17     8    30 1
    18     9    10 ar
    19     9    21 ar
    20     9    31 1
    21    10    11 ar
    22    10    32 1
    23    11    12 ar
    24    11    33 1
    25    12    19 ar
    26    12    34 1
    27    13    14 ar
    28    14    15 ar
    29    14    18 1
    30    15    16 ar
    31    15    20 1
    32    43    16 1
    33    43    23 1
    34    43    35 1
    35    16    17 ar
    36    18    36 1
    37    19    21 ar
    38    19    37 1
    39    20    21 1
    40    22    23 1
    41    22    24 1
    42    22    38 1
    43    22    39 1
    44    23    40 1
    45    23    41 1
    46    24    42 1
@<TRIPOS>SUBSTRUCTURE
     1 DFZ         1 TEMP              0 ****  ****    0 ROOT
