@<TRIPOS>MOLECULE
molecule
   18    17     1     0     0
SMALL
bcc


@<TRIPOS>ATOM
      1 C3           1.5300     0.0000     0.0000 c3         1 DG2       0.138100
      2 C4           0.0000     0.0000     0.0000 c3         1 DG2       0.230400
      3 O2           2.0060     0.0000     1.3480 os         1 DG2      -0.563200
      4 O5          -0.4770    -1.2210     0.5680 os         1 DG2      -0.569200
      5 O9           2.1070     2.5500     1.9810 o          1 DG2      -0.973167
      6 O10          3.3860     0.7790     3.4450 o          1 DG2      -0.973167
      7 O11          4.1340     1.3330     1.0990 o          1 DG2      -0.973167
      8 P1           2.9340     1.1690     1.9500 p5         1 DG2       1.276900
      9 C7           2.0330    -1.2310    -0.7100 c          1 DG2       0.927600
     10 P6          -2.0420    -1.5610     0.7270 p5         1 DG2       1.276900
     11 O15         -2.7090    -0.4780     1.4830 o          1 DG2      -0.972167
     12 O14         -2.7140    -1.6910    -0.7300 o          1 DG2      -0.972167
     13 O13         -2.2110    -2.9520     1.5210 o          1 DG2      -0.972167
     14 H1           1.8920     0.8840    -0.5110 h1         1 DG2      -0.012300
     15 H2          -0.3610     0.0900    -1.0170 h1         1 DG2      -0.013800
     16 H3          -0.3610     0.8360     0.5860 h1         1 DG2      -0.013800
     17 O7           2.6500    -2.0710    -0.0990 o          1 DG2      -0.921300
     18 O8           1.7930    -1.3940    -2.0200 o          1 DG2      -0.921300
@<TRIPOS>BOND
     1    11    10 1
     2    13    10 1
     3    10    12 1
     4    10     4 1
     5     4     2 1
     6     2     1 1
     7    17     9 1
     8     1     9 1
     9     1     3 1
    10     9    18 1
    11     3     8 1
    12     7     8 1
    13     8     5 1
    14     8     6 1
    15     1    14 1
    16     2    15 1
    17     2    16 1
@<TRIPOS>SUBSTRUCTURE
     1 DG2         1 TEMP              0 ****  ****    0 ROOT
