@<TRIPOS>MOLECULE
DG2
   18    16     1     0     0
SMALL
bcc


@<TRIPOS>ATOM
      1 C3       -254.1270  360.4530  350.9780 c2        1 DG2     -0.043900
      2 C4       -255.4750  360.3320  350.8660 c2        1 DG2     -0.043900
      3 O2       -253.3130  361.4800  350.6490 os        1 DG2     -0.484500
      4 O5       -256.3900  361.1960  350.3730 os        1 DG2     -0.484500
      5 O9       -251.1280  360.5900  349.5980 o         1 DG2     -0.959833
      6 O10      -251.0930  362.6050  351.1260 o         1 DG2     -0.959833
      7 O11      -251.4890  360.2930  352.0830 o         1 DG2     -0.959833
      8 P1       -251.6300  361.2090  350.8850 p5        1 DG2      1.329900
      9 C7        895.8230-1263.5660-1226.0380 c         1 DG2      0.904400
     10 P6       -258.0330  360.6910  350.4750 p5        1 DG2      1.329900
     11 O15      -258.0450  359.1820  350.3500 o         1 DG2     -0.959833
     12 O14      -258.5310  361.1830  351.8180 o         1 DG2     -0.959833
     13 O13      -258.6780  361.4000  349.3020 o         1 DG2     -0.959833
     14 H3        895.7580-1264.6980-1226.0450 h5        1 DG2     -0.148800
     15 H41      -255.9210  359.3720  351.2050 h4        1 DG2      0.078000
     16 H42      -253.5850  359.5950  351.4300 h4        1 DG2      0.078000
     17 O7        896.5960-1263.0210-1225.1970 o         1 DG2     -0.878300
     18 O8        895.1200-1262.9260-1226.8720 o         1 DG2     -0.878300
@<TRIPOS>BOND
     1    1    2 2   
     2    1    3 1   
     3    1   16 1   
     4    2    4 1   
     5    2   15 1   
     6    3    8 1   
     7    4   10 1   
     8    5    8 1   
     9    6    8 1   
    10    7    8 1   
    11    9   14 1   
    12    9   17 1   
    13    9   18 1   
    14   10   11 1   
    15   10   12 1   
    16   10   13 1   
@<TRIPOS>SUBSTRUCTURE
     1 DG2         1 TEMP              0 ****  ****    0 ROOT
