@<TRIPOS>MOLECULE
molecule
   43    45     1     0     0
SMALL
bcc


@<TRIPOS>ATOM
      1 PG           0.0000     0.0000     0.0000 p5         1 DG3       1.141900
      2 O1G          1.6100     0.0000     0.0000 o          1 DG3      -0.590167
      3 O2G         -0.5360     0.0000     1.5170 o          1 DG3      -0.590167
      4 O3G         -0.4940    -1.2070    -0.6980 o          1 DG3      -0.590167
      5 O3B         -0.5370     1.3150    -0.7580 os         1 DG3      -0.614800
      6 PB          -2.1450     1.2510    -0.7200 p5         1 DG3       1.301800
      7 O1B         -2.6440     1.2290     0.8090 o          1 DG3      -0.523000
      8 O2B         -2.6040     0.0240    -1.4080 o          1 DG3      -0.523000
      9 O3A         -2.7510     2.5430    -1.4660 os         1 DG3      -0.622800
     10 PA          -4.3540     2.4140    -1.3910 p5         1 DG3       1.252800
     11 O1A         -4.8180     1.0590    -2.1270 o          1 DG3      -0.768500
     12 O2A         -4.7800     2.3760     0.0260 o          1 DG3      -0.768500
     13 O5'         -5.0290     3.6790    -2.1200 os         1 DG3      -0.532200
     14 C5'         -6.4430     3.5070    -2.0200 c3         1 DG3       0.165400
     15 C4'         -7.1500     4.6830    -2.6980 c3         1 DG3       0.138100
     16 O4'         -6.8940     4.6830    -4.1200 os         1 DG3      -0.384600
     17 C3'         -8.6880     4.5230    -2.6050 c3         1 DG3      -0.121400
     18 C2'         -9.1750     5.3650    -3.8100 c3         1 DG3      -0.131400
     19 C1'         -7.9450     5.4490    -4.7340 c3         1 DG3       0.267800
     20 N9          -8.2680     4.8890    -6.0480 na         1 DG3      -0.250900
     21 C8          -8.1250     3.5850    -6.4250 cc         1 DG3       0.359400
     22 N7          -8.5080     3.4400    -7.6600 nd         1 DG3      -0.641000
     23 C5          -8.9180     4.6370    -8.1460 cd         1 DG3       0.039800
     24 C6          -9.4250     5.0720    -9.3940 c          1 DG3       0.681000
     25 O6          -9.5720     4.2890   -10.3170 o          1 DG3      -0.745500
     26 N1          -9.7490     6.3760    -9.5350 ns         1 DG3      -0.479400
     27 C2          -9.5750     7.2440    -8.4980 cd         1 DG3       0.067800
     28 N2          -9.9060     8.5640    -8.6730 nz         1 DG3      -0.609600
     29 N3          -9.1050     6.8520    -7.3360 nc         1 DG3      -0.764100
     30 C4          -8.7700     5.5750    -7.1190 cc         1 DG3       0.155800
     31 H5'1        -6.7310     2.5840    -2.5080 h1         1 DG3       0.060700
     32 H5'2        -6.7300     3.4680    -0.9760 h1         1 DG3       0.060700
     33 H4'         -6.8420     5.6240    -2.2590 h1         1 DG3       0.035700
     34 H3'1        -9.0620     4.9320    -1.6740 hc         1 DG3       0.046200
     35 H3'2        -8.9740     3.4840    -2.7210 hc         1 DG3       0.046200
     36 H2'1        -9.4710     6.3550    -3.4840 hc         1 DG3       0.045700
     37 H2'2        -9.9930     4.8650    -4.3140 hc         1 DG3       0.045700
     38 H1'         -7.6340     6.4810    -4.8350 h2         1 DG3       0.053700
     39 H8          -7.7500     2.7900    -5.7920 h5         1 DG3       0.065100
     40 HN1        -10.1180     6.7070   -10.4040 hn         1 DG3       0.261500
     41 HN21        -9.3760     8.9420    -9.4330 hn         1 DG3       0.319467
     42 HN22       -10.8830     8.6380    -8.8790 hn         1 DG3       0.319467
     43 H23         -9.7020     9.0720    -7.8360 hn         1 DG3       0.319467
@<TRIPOS>BOND
     1     1     2 1
     2     1     3 1
     3     1     4 1
     4     1     5 1
     5     5     6 1
     6     6     7 1
     7     6     8 1
     8     6     9 1
     9     9    10 1
    10    10    11 1
    11    10    12 1
    12    10    13 1
    13    13    14 1
    14    14    15 1
    15    14    31 1
    16    14    32 1
    17    15    16 1
    18    15    17 1
    19    15    33 1
    20    16    19 1
    21    17    18 1
    22    17    34 1
    23    17    35 1
    24    18    19 1
    25    18    36 1
    26    18    37 1
    27    19    20 1
    28    19    38 1
    29    20    21 1
    30    20    30 1
    31    21    22 2
    32    21    39 1
    33    22    23 1
    34    23    24 1
    35    23    30 2
    36    24    25 2
    37    24    26 1
    38    26    27 1
    39    26    40 1
    40    27    28 1
    41    27    29 2
    42    28    41 1
    43    28    42 1
    44    29    30 1
    45    43    28 1
@<TRIPOS>SUBSTRUCTURE
     1 DG3         1 TEMP              0 ****  ****    0 ROOT
