@<TRIPOS>MOLECULE
DG6
   28    27     1     0     0
SMALL
bcc


@<TRIPOS>ATOM
      1 C1         -0.3610   -0.7080    0.1730 c3        1 DG6      0.128400
      2 O1          0.9930   -1.1450    0.1920 oh        1 DG6     -0.642800
      3 C2         -0.7740   -0.0560    1.4750 c3        1 DG6     -0.139400
      4 C3         -2.2790    0.2190    1.5060 c3        1 DG6      0.138100
      5 O3         -2.9860   -0.9780    1.2790 oh        1 DG6     -0.664800
      6 C4         -2.6370    0.9280    2.8340 c3        1 DG6      0.160100
      7 O4         -2.1200    0.2110    3.9210 oh        1 DG6     -0.678800
      8 C5         -4.1530    1.1910    2.8930 c3        1 DG6      0.060100
      9 O5         -4.3210    2.5530    2.4700 oh        1 DG6     -0.654800
     10 C6         -4.8090    0.9500    4.2780 c3        1 DG6      0.199400
     11 O6         -5.7250   -0.0690    4.2150 os        1 DG6     -0.570200
     12 P          -5.1570   -1.5710    4.8670 p5        1 DG6      1.339900
     13 O1P        -6.3240   -2.4930    4.7120 o         1 DG6     -0.922500
     14 O2P        -3.9850   -1.7840    3.9160 o         1 DG6     -0.922500
     15 O3P        -4.7310   -1.1760    6.2490 o         1 DG6     -0.922500
     16 HC11       -0.4060    0.0190   -0.6810 h1        1 DG6      0.042200
     17 HC12       -1.0330   -1.5820   -0.0470 h1        1 DG6      0.042200
     18 HO1         1.1100   -1.6420    1.0100 ho        1 DG6      0.395000
     19 HC21       -0.5300   -0.7290    2.3400 hc        1 DG6      0.048700
     20 HC22       -0.2160    0.9030    1.6210 hc        1 DG6      0.048700
     21 HC3        -2.5530    0.8970    0.6480 h1        1 DG6      0.020700
     22 HO3        -3.2800   -1.3460    2.1440 ho        1 DG6      0.500000
     23 HC4        -2.0930    1.9180    2.8500 h1        1 DG6      0.028700
     24 HO4        -2.7280   -0.5580    4.1210 ho        1 DG6      0.503000
     25 HC5        -4.6740    0.5310    2.1400 h1        1 DG6      0.065700
     26 HO5        -5.2380    2.7740    2.6640 ho        1 DG6      0.387000
     27 HC61       -5.3430    1.9080    4.5660 h1        1 DG6      0.004700
     28 HC62       -4.0290    0.7440    5.0640 h1        1 DG6      0.004700
@<TRIPOS>BOND
     1    1    2 1   
     2    1    3 1   
     3    1   16 1   
     4    1   17 1   
     5    2   18 1   
     6    3    4 1   
     7    3   19 1   
     8    3   20 1   
     9    4    5 1   
    10    4    6 1   
    11    4   21 1   
    12    5   22 1   
    13    6    7 1   
    14    6    8 1   
    15    6   23 1   
    16    7   24 1   
    17    8    9 1   
    18    8   10 1   
    19    8   25 1   
    20    9   26 1   
    21   10   11 1   
    22   10   27 1   
    23   10   28 1   
    24   11   12 1   
    25   12   13 1   
    26   12   14 1   
    27   12   15 1   
@<TRIPOS>SUBSTRUCTURE
     1 DG6         1 TEMP              0 ****  ****    0 ROOT
