@<TRIPOS>MOLECULE
molecule
   28    27     1     0     0
SMALL
bcc


@<TRIPOS>ATOM
      1 C1           0.0000     0.0000     0.0000 c3         1 DG6       0.134400
      2 O1           1.4290     0.0000     0.0000 oh         1 DG6      -0.616800
      3 C2          -0.5100     0.0000     1.4420 c3         1 DG6      -0.101400
      4 C3          -2.0390     0.0010     1.4420 c3         1 DG6       0.136100
      5 O3          -2.5160    -1.2200     0.8730 oh         1 DG6      -0.586800
      6 C4          -2.5490     0.1260     2.8790 c3         1 DG6       0.150100
      7 O4          -1.9800    -0.9120     3.6800 oh         1 DG6      -0.585800
      8 C5          -4.0750     0.0020     2.8920 c3         1 DG6       0.125100
      9 O5          -4.6440     1.0400     2.0920 oh         1 DG6      -0.640800
     10 C6          -4.5850     0.1270     4.3300 c3         1 DG6       0.141400
     11 O6          -5.9940    -0.1050     4.3570 os         1 DG6      -0.545200
     12 P           -6.4600     0.0420     5.8910 p5         1 DG6       1.157900
     13 O1P         -8.0630    -0.0780     5.9790 o          1 DG6      -0.912500
     14 O2P         -5.7860    -1.1240     6.7710 o          1 DG6      -0.912500
     15 O3P         -6.0350     1.3610     6.4110 o          1 DG6      -0.912500
     16 HC11        -0.3610     0.8840    -0.5110 h1         1 DG6       0.014700
     17 HC12        -0.3610    -0.8850    -0.5110 h1         1 DG6       0.014700
     18 HO1          1.7430     0.0060    -0.8890 ho         1 DG6       0.384000
     19 HC21        -0.1480     0.8840     1.9530 hc         1 DG6       0.063700
     20 HC22        -0.1490    -0.8850     1.9520 hc         1 DG6       0.063700
     21 HC3         -2.4000     0.8380     0.8570 h1         1 DG6       0.040700
     22 HO3         -2.8670    -1.0510     0.0150 ho         1 DG6       0.380000
     23 HC4         -2.2620     1.0900     3.2810 h1         1 DG6       0.043700
     24 HO4         -1.4900    -0.5300     4.3890 ho         1 DG6       0.397000
     25 HC5         -4.3620    -0.9630     2.4900 h1         1 DG6       0.052700
     26 HO5         -5.4610     0.7430     1.7270 ho         1 DG6       0.412000
     27 HC61        -4.3750     1.1230     4.7010 h1         1 DG6       0.050200
     28 HC62        -4.0860    -0.6040     4.9550 h1         1 DG6       0.050200
@<TRIPOS>BOND
     1     1     2 1
     2     1     3 1
     3     1    16 1
     4     1    17 1
     5     2    18 1
     6     3     4 1
     7     3    19 1
     8     3    20 1
     9     4     5 1
    10     4     6 1
    11     4    21 1
    12     5    22 1
    13     6     7 1
    14     6     8 1
    15     6    23 1
    16     7    24 1
    17     8     9 1
    18     8    10 1
    19     8    25 1
    20     9    26 1
    21    10    11 1
    22    10    27 1
    23    10    28 1
    24    11    12 1
    25    12    13 1
    26    12    14 1
    27    12    15 1
@<TRIPOS>SUBSTRUCTURE
     1 DG6         1 TEMP              0 ****  ****    0 ROOT
