@<TRIPOS>MOLECULE
DG7
   65    68     1     0     0
SMALL
bcc


@<TRIPOS>ATOM
      1 CAA          0.0000     0.0000     0.0000 c3         1 DG7       0.063200
      2 CAB          8.7940    -1.4150     1.7460 c3         1 DG7       0.006900
      3 CAC          8.6680    -2.0520     4.1590 c3         1 DG7       0.006900
      4 CAD          9.4570     0.2280     3.5080 c3         1 DG7       0.006900
      5 OAE          5.8760     1.8230     6.2120 o          1 DG7      -0.643100
      6 CAF          0.7220    10.9640    12.9840 ca         1 DG7      -0.228300
      7 CAG         -0.6010    10.6440    13.2220 ca         1 DG7       0.410200
      8 CAH          1.4200    10.2710    12.0070 ca         1 DG7      -0.048000
      9 CAI          2.5030     0.0000     0.0000 ca         1 DG7      -0.082500
     10 CAJ          1.3550    -0.0010     2.1040 ca         1 DG7      -0.082500
     11 CAK          3.7170     0.0000     0.6590 ca         1 DG7      -0.109000
     12 CAL          2.5660    -0.0130     2.7680 ca         1 DG7      -0.109000
     13 CAM         -0.5640     9.0060    11.6020 ca         1 DG7       0.430200
     14 CAN          5.4230     4.1570     9.7400 cc         1 DG7      -0.159400
     15 CAO          6.5350     0.3950     4.2320 cc         1 DG7      -0.327300
     16 CAP          2.7980     6.5610     9.8800 c3         1 DG7       0.210400
     17 CAR          1.4930     8.5360    10.2590 c3         1 DG7       0.276700
     18 NAS         -1.1990     9.6890    12.5350 nb         1 DG7      -0.588000
     19 NAT          3.5640     4.0180     8.5080 nd         1 DG7      -0.627000
     20 NAU          6.1430    -0.6320     2.3300 nd         1 DG7      -0.650800
     21 NAW          3.8650     2.7050     6.5490 ns         1 DG7      -0.069400
     22 OAX          2.1050     7.3750    10.8270 os         1 DG7      -0.414600
     23 SAY          5.8790     3.1530     8.3650 ss         1 DG7      -0.207300
     24 CAZ          4.7330     1.9710     5.8240 c          1 DG7       0.534100
     25 CBA          1.3230    -0.0010     0.7210 ca         1 DG7      -0.087300
     26 CBB          0.7570     9.2770    11.3020 ca         1 DG7      -0.227600
     27 CBC          4.1400     4.4950     9.5970 cd         1 DG7       0.347600
     28 CBD          3.7520    -0.0060     2.0460 ca         1 DG7      -0.138200
     29 CBE          5.2330     0.6420     3.9210 cd         1 DG7      -0.240700
     30 CBF          7.0750    -0.4000     3.2180 cc         1 DG7       0.392600
     31 CBG          4.2990     3.2920     7.7270 cc         1 DG7       0.414300
     32 NBH          4.9680     0.0120     2.7440 na         1 DG7       0.583300
     33 HAA         -0.7920    -0.2390     0.6990 hc         1 DG7       0.010367
     34 HAAA         0.0190    -0.7400    -0.7910 hc         1 DG7       0.010367
     35 HAAB        -0.1780     0.9800    -0.4270 hc         1 DG7       0.010367
     36 HAB          9.8130    -1.7800     1.7030 hc         1 DG7       0.008033
     37 HABA         8.1140    -2.2090     1.4620 hc         1 DG7       0.008033
     38 HABB         8.6810    -0.5810     1.0650 hc         1 DG7       0.008033
     39 HAC          7.9490    -2.8330     3.9430 hc         1 DG7       0.008033
     40 HACA         8.5170    -1.6920     5.1690 hc         1 DG7       0.008033
     41 HACB         9.6720    -2.4480     4.0630 hc         1 DG7       0.008033
     42 HAD         10.4740    -0.0880     3.3130 hc         1 DG7       0.008033
     43 HADA         9.3520     0.4780     4.5570 hc         1 DG7       0.008033
     44 HADB         9.2270     1.0980     2.9050 hc         1 DG7       0.008033
     45 HAG         -1.1540    11.1820    13.9820 h4         1 DG7      -0.021900
     46 HAH          2.4570    10.5030    11.7970 ha         1 DG7       0.111000
     47 HAI          2.4750     0.0050    -1.0830 ha         1 DG7       0.111000
     48 HAJ          0.4300    -0.0060     2.6670 ha         1 DG7       0.111000
     49 HAK          4.6410     0.0030     0.0930 ha         1 DG7       0.120000
     50 HAL          2.5900    -0.0150     3.8510 ha         1 DG7       0.120000
     51 HAM         -1.0890     8.2310    11.0570 h4         1 DG7      -0.017900
     52 HAN          6.0690     4.4450    10.5590 h4         1 DG7       0.162000
     53 HAO          7.0600     0.7540     5.1090 ha         1 DG7       0.193000
     54 HAP          3.5860     7.1400     9.4130 h1         1 DG7      -0.002300
     55 HAPA         2.1040     6.2180     9.1230 h1         1 DG7      -0.002300
     56 HAR          0.7720     8.2330     9.5100 h1         1 DG7      -0.004800
     57 HARA         2.2530     9.1560     9.8000 h1         1 DG7      -0.004800
     58 HNAW         2.9240     2.8260     6.2300 hn         1 DG7       0.170500
     59 CBI          8.4930    -0.9080     3.1580 c3         1 DG7      -0.082300
     60 NAV          4.3340     1.4000     4.6700 ns         1 DG7      -0.008100
     61 CAQ          3.4090     5.3540    10.5960 c3         1 DG7      -0.048700
     62 HAF          1.2070    11.7470    13.5530 ha         1 DG7       0.113000
     63 HAQ          4.1040     5.6970    11.3540 hc         1 DG7       0.029700
     64 HAQA         2.6220     4.7750    11.0630 hc         1 DG7       0.029700
     65 HNAV         3.4080     1.5600     4.3270 hn         1 DG7       0.172500
@<TRIPOS>BOND
     1     1    25 1   
     2     1    33 1   
     3     1    34 1   
     4     1    35 1   
     5     2    36 1   
     6     2    37 1   
     7     2    38 1   
     8     2    59 1   
     9     3    39 1   
    10     3    40 1   
    11     3    41 1   
    12     3    59 1   
    13     4    42 1   
    14     4    43 1   
    15     4    44 1   
    16     4    59 1   
    17     5    24 2   
    18     6     7 ar  
    19     6     8 ar  
    20     6    62 1   
    21     7    18 ar  
    22     7    45 1   
    23     8    26 ar  
    24     8    46 1   
    25     9    11 ar  
    26     9    25 ar  
    27     9    47 1   
    28    10    12 ar  
    29    10    25 ar  
    30    10    48 1   
    31    11    28 ar  
    32    11    49 1   
    33    12    28 ar  
    34    12    50 1   
    35    13    18 ar  
    36    13    26 ar  
    37    13    51 1   
    38    14    23 1   
    39    14    27 2   
    40    14    52 1   
    41    15    29 2   
    42    15    30 1   
    43    15    53 1   
    44    16    22 1   
    45    16    54 1   
    46    16    55 1   
    47    16    61 1   
    48    17    22 1   
    49    17    26 1   
    50    17    56 1   
    51    17    57 1   
    52    19    27 1   
    53    19    31 2   
    54    20    30 2   
    55    20    32 1   
    56    21    24 1   
    57    21    31 1   
    58    21    58 1   
    59    23    31 1   
    60    24    60 1   
    61    27    61 1   
    62    28    32 1   
    63    29    32 1   
    64    29    60 1   
    65    30    59 1   
    66    60    65 1   
    67    61    63 1   
    68    61    64 1   
@<TRIPOS>SUBSTRUCTURE
     1 DG7         1 TEMP              0 ****  ****    0 ROOT
