@<TRIPOS>MOLECULE
molecule
  120   119     1     0     0
SMALL
bcc


@<TRIPOS>ATOM
      1 CA1          0.0000     0.0000     0.0000 c          1 DGA       0.635100
      2 CA2          1.5120     0.0000     0.0000 c3         1 DGA      -0.138400
      3 CA3          2.0840     0.0000     1.4180 c3         1 DGA      -0.073400
      4 CA4          3.6130    -0.0440     1.3980 c3         1 DGA      -0.078400
      5 CA5          4.2370    -0.1180     2.7950 c3         1 DGA      -0.077400
      6 CA6          5.7640    -0.2360     2.7740 c3         1 DGA      -0.077400
      7 CA7          6.3330    -0.2730     4.1940 c3         1 DGA      -0.076400
      8 CA8          7.8610    -0.3810     4.2370 c3         1 DGA      -0.075400
      9 CA9          8.6330     0.7260     3.5110 c3         1 DGA      -0.077400
     10 CAA          8.4170     2.1160     4.1160 c3         1 DGA      -0.077400
     11 CBA          9.2320     3.1740     3.3670 c3         1 DGA      -0.078400
     12 CCA          9.0740     4.5840     3.9470 c3         1 DGA      -0.077400
     13 CDA          9.8690     5.6450     3.1810 c3         1 DGA      -0.077400
     14 CEA          9.7030     7.0570     3.7540 c3         1 DGA      -0.078400
     15 CFA         10.4750     8.1240     2.9740 c3         1 DGA      -0.075400
     16 CGA         10.3320     9.4990     3.6310 c3         1 DGA      -0.081400
     17 CHA         11.0660    10.6100     2.8780 c3         1 DGA      -0.081400
     18 CIA         10.9480    11.9740     3.5410 c3         1 DGA      -0.088100
     19 OA1         -0.7060    -0.4850     0.8730 o          1 DGA      -0.518000
     20 CB1         -2.0610     3.5420    -1.5160 c          1 DGA       0.642100
     21 CB2         -0.9480     4.4960    -1.1480 c3         1 DGA      -0.141400
     22 CB3         -1.3410     5.4140     0.0090 c3         1 DGA      -0.074400
     23 CB4         -0.1880     6.3440     0.3950 c3         1 DGA      -0.078400
     24 CB5         -0.5030     7.2380     1.5990 c3         1 DGA      -0.077400
     25 CB6          0.6750     8.1140     2.0300 c3         1 DGA      -0.077400
     26 CB7          0.2940     9.0080     3.2130 c3         1 DGA      -0.074400
     27 CB8          1.4330     9.9160     3.6850 c3         1 DGA      -0.076400
     28 CB9          2.6800     9.2060     4.2180 c3         1 DGA      -0.078400
     29 CAB          3.7480    10.1640     4.7530 c3         1 DGA      -0.075400
     30 CBB          4.9560     9.3970     5.2940 c3         1 DGA      -0.077400
     31 CCB          6.0480    10.3080     5.8680 c3         1 DGA      -0.077400
     32 CDB          7.2670     9.5390     6.3850 c3         1 DGA      -0.077400
     33 CEB          8.3620    10.4510     6.9480 c3         1 DGA      -0.078400
     34 CFB          9.5940     9.6860     7.4420 c3         1 DGA      -0.077400
     35 CGB         10.6230    10.6380     8.0580 c3         1 DGA      -0.078400
     36 CHB         11.8870     9.9300     8.5480 c3         1 DGA      -0.082400
     37 CIB         12.9020    10.8670     9.1850 c3         1 DGA      -0.088100
     38 OB1         -3.1610     3.5000    -0.9800 o          1 DGA      -0.522000
     39 OG1         -0.4410     0.6280    -1.1310 os         1 DGA      -0.422900
     40 CG1         -1.8630     0.7090    -1.2750 c3         1 DGA       0.094400
     41 CG2         -2.2110     1.4300    -2.5730 c3         1 DGA       0.151100
     42 OG2         -1.6370     2.7390    -2.5370 os         1 DGA      -0.408900
     43 CG3         -1.6440     0.7000    -3.7840 c3         1 DGA       0.146400
     44 OXT         -2.0240     1.4010    -4.9640 oh         1 DGA      -0.598800
     45 HA21         1.8640     0.8820    -0.5220 hc         1 DGA       0.073700
     46 HA22         1.8640    -0.8820    -0.5220 hc         1 DGA       0.073700
     47 HA31         1.7100    -0.8660     1.9510 hc         1 DGA       0.054700
     48 HA32         1.7610     0.8980     1.9300 hc         1 DGA       0.054700
     49 HA41         3.9790     0.8460     0.9010 hc         1 DGA       0.038700
     50 HA42         3.9270    -0.9130     0.8320 hc         1 DGA       0.038700
     51 HA51         3.9660     0.7760     3.3430 hc         1 DGA       0.040200
     52 HA52         3.8300    -0.9790     3.3120 hc         1 DGA       0.040200
     53 HA61         6.1780     0.6160     2.2470 hc         1 DGA       0.040700
     54 HA62         6.0420    -1.1450     2.2550 hc         1 DGA       0.040700
     55 HA71         5.9120    -1.1250     4.7140 hc         1 DGA       0.039700
     56 HA72         6.0360     0.6310     4.7110 hc         1 DGA       0.039700
     57 HA81         8.1440    -1.3310     3.7990 hc         1 DGA       0.037700
     58 HA82         8.1690    -0.3820     5.2750 hc         1 DGA       0.037700
     59 HA91         8.3170     0.7460     2.4750 hc         1 DGA       0.039200
     60 HA92         9.6900     0.4920     3.5480 hc         1 DGA       0.039200
     61 HAT1         7.3660     2.3700     4.0570 hc         1 DGA       0.040200
     62 HAT2         8.7220     2.1020     5.1550 hc         1 DGA       0.040200
     63 HAE1         8.9140     3.1880     2.3310 hc         1 DGA       0.037700
     64 HAE2        10.2780     2.8980     3.4060 hc         1 DGA       0.037700
     65 HAW1         8.0250     4.8530     3.9250 hc         1 DGA       0.038200
     66 HAW2         9.4100     4.5750     4.9770 hc         1 DGA       0.038200
     67 HAH1        10.9190     5.3800     3.2090 hc         1 DGA       0.037700
     68 HAH2         9.5390     5.6480     2.1490 hc         1 DGA       0.037700
     69 HAF1        10.0510     7.0570     4.7800 hc         1 DGA       0.038200
     70 HAF2         8.6510     7.3130     3.7440 hc         1 DGA       0.038200
     71 HAN1        11.5240     7.8520     2.9440 hc         1 DGA       0.039700
     72 HAN2        10.0910     8.1710     1.9620 hc         1 DGA       0.039700
     73 HAS1        10.7240     9.4440     4.6390 hc         1 DGA       0.039700
     74 HAS2         9.2790     9.7510     3.6810 hc         1 DGA       0.039700
     75 HAV1        10.6600    10.6760     1.8760 hc         1 DGA       0.036700
     76 HAV2        12.1150    10.3480     2.8110 hc         1 DGA       0.036700
     77 HAG1        11.2980    11.9100     4.5640 hc         1 DGA       0.033367
     78 HAG2         9.9120    12.2910     3.5320 hc         1 DGA       0.033367
     79 HAG3        11.5500    12.6920     2.9980 hc         1 DGA       0.033367
     80 HB21        -0.0740     3.9240    -0.8620 hc         1 DGA       0.075200
     81 HB22        -0.7050     5.1030    -2.0120 hc         1 DGA       0.075200
     82 HB31        -2.1950     6.0120    -0.2870 hc         1 DGA       0.054700
     83 HB32        -1.6110     4.8090     0.8660 hc         1 DGA       0.054700
     84 HB41         0.0470     6.9750    -0.4540 hc         1 DGA       0.037700
     85 HB42         0.6800     5.7400     0.6290 hc         1 DGA       0.037700
     86 HB51        -1.3380     7.8790     1.3450 hc         1 DGA       0.040700
     87 HB52        -0.7890     6.6080     2.4320 hc         1 DGA       0.040700
     88 HB61         0.9770     8.7380     1.1970 hc         1 DGA       0.040200
     89 HB62         1.5040     7.4790     2.3170 hc         1 DGA       0.040200
     90 HB71        -0.5460     9.6280     2.9230 hc         1 DGA       0.040200
     91 HB72        -0.0110     8.3770     4.0400 hc         1 DGA       0.040200
     92 HB81         1.0490    10.5570     4.4700 hc         1 DGA       0.036700
     93 HB82         1.7310    10.5410     2.8530 hc         1 DGA       0.036700
     94 HB91         3.1130     8.6180     3.4180 hc         1 DGA       0.038200
     95 HB92         2.3830     8.5370     5.0180 hc         1 DGA       0.038200
     96 HBT1         3.3220    10.7620     5.5500 hc         1 DGA       0.039700
     97 HBT2         4.0720    10.8180     3.9530 hc         1 DGA       0.039700
     98 HBE1         4.6200     8.7250     6.0750 hc         1 DGA       0.038200
     99 HBE2         5.3830     8.8090     4.4900 hc         1 DGA       0.038200
    100 HBW1         6.3720    10.9920     5.0930 hc         1 DGA       0.037700
    101 HBW2         5.6270    10.8810     6.6850 hc         1 DGA       0.037700
    102 HBH1         6.9440     8.8610     7.1660 hc         1 DGA       0.038200
    103 HBH2         7.6830     8.9590     5.5700 hc         1 DGA       0.038200
    104 HBF1         8.6700    11.1420     6.1730 hc         1 DGA       0.038700
    105 HBF2         7.9510    11.0170     7.7750 hc         1 DGA       0.038700
    106 HBN1        10.0460     9.1660     6.6070 hc         1 DGA       0.040200
    107 HBN2         9.2870     8.9630     8.1880 hc         1 DGA       0.040200
    108 HBS1        10.1650    11.1490     8.8960 hc         1 DGA       0.037700
    109 HBS2        10.9040    11.3740     7.3140 hc         1 DGA       0.037700
    110 HBV1        12.3550     9.4340     7.7060 hc         1 DGA       0.036700
    111 HBV2        11.6030     9.1810     9.2770 hc         1 DGA       0.036700
    112 HBG1        12.4510    11.3630    10.0360 hc         1 DGA       0.033367
    113 HBG2        13.2130    11.6090     8.4590 hc         1 DGA       0.033367
    114 HBG3        13.7630    10.2980     9.5130 hc         1 DGA       0.033367
    115 HG11        -2.2790     1.2560    -0.4370 h1         1 DGA       0.065200
    116 HG12        -2.2800    -0.2900    -1.2950 h1         1 DGA       0.065200
    117 HG2         -3.2880     1.5080    -2.6670 h1         1 DGA       0.083700
    118 HG31        -2.0390    -0.3080    -3.8180 h1         1 DGA       0.038200
    119 HG32        -0.5640     0.6650    -3.7140 h1         1 DGA       0.038200
    120 HXT         -1.8170     0.8780    -5.7200 ho         1 DGA       0.405000
@<TRIPOS>BOND
     1     1     2 1
     2     1    19 2
     3     1    39 1
     4     2     3 1
     5     2    45 1
     6     2    46 1
     7     3     4 1
     8     3    47 1
     9     3    48 1
    10     4     5 1
    11     4    49 1
    12     4    50 1
    13     5     6 1
    14     5    51 1
    15     5    52 1
    16     6     7 1
    17     6    53 1
    18     6    54 1
    19     7     8 1
    20     7    55 1
    21     7    56 1
    22     8     9 1
    23     8    57 1
    24     8    58 1
    25     9    10 1
    26     9    59 1
    27     9    60 1
    28    10    11 1
    29    10    61 1
    30    10    62 1
    31    11    12 1
    32    11    63 1
    33    11    64 1
    34    12    13 1
    35    12    65 1
    36    12    66 1
    37    13    14 1
    38    13    67 1
    39    13    68 1
    40    14    15 1
    41    14    69 1
    42    14    70 1
    43    15    16 1
    44    15    71 1
    45    15    72 1
    46    16    17 1
    47    16    73 1
    48    16    74 1
    49    17    18 1
    50    17    75 1
    51    17    76 1
    52    18    77 1
    53    18    78 1
    54    18    79 1
    55    20    21 1
    56    20    38 2
    57    20    42 1
    58    21    22 1
    59    21    80 1
    60    21    81 1
    61    22    23 1
    62    22    82 1
    63    22    83 1
    64    23    24 1
    65    23    84 1
    66    23    85 1
    67    24    25 1
    68    24    86 1
    69    24    87 1
    70    25    26 1
    71    25    88 1
    72    25    89 1
    73    26    27 1
    74    26    90 1
    75    26    91 1
    76    27    28 1
    77    27    92 1
    78    27    93 1
    79    28    29 1
    80    28    94 1
    81    28    95 1
    82    29    30 1
    83    29    96 1
    84    29    97 1
    85    30    31 1
    86    30    98 1
    87    30    99 1
    88    31    32 1
    89    31   100 1
    90    31   101 1
    91    32    33 1
    92    32   102 1
    93    32   103 1
    94    33    34 1
    95    33   104 1
    96    33   105 1
    97    34    35 1
    98    34   106 1
    99    34   107 1
   100    35    36 1
   101    35   108 1
   102    35   109 1
   103    36    37 1
   104    36   110 1
   105    36   111 1
   106    37   112 1
   107    37   113 1
   108    37   114 1
   109    39    40 1
   110    40    41 1
   111    40   115 1
   112    40   116 1
   113    41    42 1
   114    41    43 1
   115    41   117 1
   116    43    44 1
   117    43   118 1
   118    43   119 1
   119    44   120 1
@<TRIPOS>SUBSTRUCTURE
     1 DGA         1 TEMP              0 ****  ****    0 ROOT
