@<TRIPOS>MOLECULE
DGA
  120   119     1     0     0
SMALL
bcc


@<TRIPOS>ATOM
      1 CA1        -0.2770   -0.7770   -0.4320 c         1 DGA      0.632100
      2 CA2         1.1500   -1.1660   -0.1940 c3        1 DGA     -0.126400
      3 CA3         1.6400   -0.5850    1.1170 c3        1 DGA     -0.077400
      4 CA4         3.0990   -0.9190    1.3420 c3        1 DGA     -0.078400
      5 CA5         3.5950   -0.3230    2.6430 c3        1 DGA     -0.079400
      6 CA6         5.0850   -0.5350    2.8120 c3        1 DGA     -0.079400
      7 CA7         5.5760    0.0650    4.1130 c3        1 DGA     -0.078400
      8 CA8         7.0820   -0.0170    4.2540 c3        1 DGA     -0.077400
      9 CA9         7.8200    1.0430    3.4610 c3        1 DGA     -0.078400
     10 CAA         7.7820    2.3990    4.1340 c3        1 DGA     -0.079400
     11 CBA         8.4930    3.4440    3.3000 c3        1 DGA     -0.079400
     12 CCA         8.4360    4.8050    3.9600 c3        1 DGA     -0.079400
     13 CDA         9.1350    5.8530    3.1210 c3        1 DGA     -0.078400
     14 CEA         9.0770    7.2140    3.7810 c3        1 DGA     -0.080400
     15 CFA         9.7900    8.2600    2.9490 c3        1 DGA     -0.078400
     16 CGA         9.7590    9.6090    3.6320 c3        1 DGA     -0.085400
     17 CHA        10.4780   10.6650    2.8200 c3        1 DGA     -0.079400
     18 CIA        10.4600   11.9990    3.5210 c3        1 DGA     -0.094100
     19 OA1        -1.2870   -1.1180    0.1840 o         1 DGA     -0.537000
     20 CB1        -1.3770    3.6370   -1.6070 c         1 DGA      0.636100
     21 CB2        -0.4130    4.7270   -1.2540 c3        1 DGA     -0.127400
     22 CB3        -0.5950    5.1640    0.1840 c3        1 DGA     -0.079400
     23 CB4         0.3630    6.2830    0.5300 c3        1 DGA     -0.078400
     24 CB5         0.1610    6.7500    1.9560 c3        1 DGA     -0.079400
     25 CB6         1.1640    7.8200    2.3310 c3        1 DGA     -0.079400
     26 CB7         0.9090    8.3430    3.7290 c3        1 DGA     -0.078400
     27 CB8         1.9270    9.3830    4.1490 c3        1 DGA     -0.078400
     28 CB9         3.2230    8.7620    4.6270 c3        1 DGA     -0.079400
     29 CAB         4.2270    9.8260    5.0160 c3        1 DGA     -0.079400
     30 CBB         5.4880    9.2130    5.5880 c3        1 DGA     -0.079400
     31 CCB         6.5000   10.2790    5.9490 c3        1 DGA     -0.079400
     32 CDB         7.7260    9.6770    6.6000 c3        1 DGA     -0.083400
     33 CEB         8.7660   10.7370    6.8960 c3        1 DGA     -0.083400
     34 CFB         9.9700   10.1470    7.5980 c3        1 DGA     -0.079400
     35 CGB        11.0350   11.1960    7.8350 c3        1 DGA     -0.079400
     36 CHB        12.2370   10.6110    8.5460 c3        1 DGA     -0.080400
     37 CIB        13.3000   11.6520    8.7830 c3        1 DGA     -0.092100
     38 OB1        -2.5510    3.4920   -1.2650 o         1 DGA     -0.538000
     39 OG1        -0.4210    0.0690   -1.4990 os        1 DGA     -0.440900
     40 CG1        -1.7470    0.5500   -1.7640 c3        1 DGA      0.114400
     41 CG2        -1.6400    1.6010   -2.8640 c3        1 DGA      0.108100
     42 OG2        -0.8210    2.7060   -2.4460 os        1 DGA     -0.446900
     43 CG3        -0.9520    1.0500   -4.1170 c3        1 DGA      0.135400
     44 OXT        -0.9380    2.0050   -5.1560 oh        1 DGA     -0.595800
     45 HA21        1.7880   -0.8020   -1.0430 hc        1 DGA      0.077700
     46 HA22        1.2020   -2.2860   -0.1680 hc        1 DGA      0.077700
     47 HA31        1.0190   -0.9880    1.9600 hc        1 DGA      0.055700
     48 HA32        1.5080    0.5300    1.1060 hc        1 DGA      0.055700
     49 HA41        3.7120   -0.5230    0.4890 hc        1 DGA      0.042200
     50 HA42        3.2350   -2.0320    1.3610 hc        1 DGA      0.042200
     51 HA51        3.3700    0.7760    2.6620 hc        1 DGA      0.042200
     52 HA52        3.0470   -0.7880    3.5030 hc        1 DGA      0.042200
     53 HA61        5.3150   -1.6330    2.7930 hc        1 DGA      0.040200
     54 HA62        5.6290   -0.0680    1.9490 hc        1 DGA      0.040200
     55 HA71        5.0980   -0.4810    4.9690 hc        1 DGA      0.040700
     56 HA72        5.2470    1.1360    4.1800 hc        1 DGA      0.040700
     57 HA81        7.4280   -1.0300    3.9170 hc        1 DGA      0.039700
     58 HA82        7.3520    0.0820    5.3390 hc        1 DGA      0.039700
     59 HA91        8.8900    0.7270    3.3380 hc        1 DGA      0.039700
     60 HA92        7.3790    1.1230    2.4330 hc        1 DGA      0.039700
     61 HAT1        6.7180    2.7120    4.2980 hc        1 DGA      0.039700
     62 HAT2        8.2660    2.3320    5.1440 hc        1 DGA      0.039700
     63 HAE1        8.0200    3.5000    2.2840 hc        1 DGA      0.039200
     64 HAE2        9.5630    3.1430    3.1500 hc        1 DGA      0.039200
     65 HAW1        8.9160    4.7520    4.9730 hc        1 DGA      0.039200
     66 HAW2        7.3660    5.1020    4.1180 hc        1 DGA      0.039200
     67 HAH1       10.2050    5.5560    2.9640 hc        1 DGA      0.039200
     68 HAH2        8.6550    5.9060    2.1080 hc        1 DGA      0.039200
     69 HAF1        8.0070    7.5170    3.9300 hc        1 DGA      0.039700
     70 HAF2        9.5470    7.1590    4.7980 hc        1 DGA      0.039700
     71 HAN1       10.8540    7.9470    2.7810 hc        1 DGA      0.039200
     72 HAN2        9.3040    8.3350    1.9410 hc        1 DGA      0.039200
     73 HAS1        8.6930    9.9240    3.7980 hc        1 DGA      0.042200
     74 HAS2       10.2340    9.5290    4.6470 hc        1 DGA      0.042200
     75 HAV1       11.5390   10.3450    2.6460 hc        1 DGA      0.038200
     76 HAV2        9.9920   10.7590    1.8140 hc        1 DGA      0.038200
     77 HAG1        9.4100   12.3420    3.6880 hc        1 DGA      0.032700
     78 HAG2       10.9650   11.9290    4.5160 hc        1 DGA      0.032700
     79 HAG3       10.9900   12.7680    2.9090 hc        1 DGA      0.032700
     80 HB21        0.6370    4.3720   -1.4280 hc        1 DGA      0.079200
     81 HB22       -0.6070    5.5870   -1.9510 hc        1 DGA      0.079200
     82 HB31       -0.4210    4.2920    0.8680 hc        1 DGA      0.058200
     83 HB32       -1.6550    5.5000    0.3410 hc        1 DGA      0.058200
     84 HB41        1.4200    5.9310    0.3950 hc        1 DGA      0.041200
     85 HB42        0.2090    7.1440   -0.1720 hc        1 DGA      0.041200
     86 HB51        0.2620    5.8790    2.6560 hc        1 DGA      0.042700
     87 HB52       -0.8800    7.1510    2.0750 hc        1 DGA      0.042700
     88 HB61        2.2030    7.4000    2.2670 hc        1 DGA      0.040200
     89 HB62        1.1040    8.6660    1.5970 hc        1 DGA      0.040200
     90 HB71       -0.1160    8.7980    3.7660 hc        1 DGA      0.040200
     91 HB72        0.9180    7.4890    4.4570 hc        1 DGA      0.040200
     92 HB81        1.4930   10.0040    4.9780 hc        1 DGA      0.039700
     93 HB82        2.1360   10.0760    3.2920 hc        1 DGA      0.039700
     94 HB91        3.0180    8.0980    5.5080 hc        1 DGA      0.039700
     95 HB92        3.6550    8.1150    3.8190 hc        1 DGA      0.039700
     96 HBT1        3.7700   10.5150    5.7740 hc        1 DGA      0.039700
     97 HBT2        4.4840   10.4470    4.1180 hc        1 DGA      0.039700
     98 HBE1        5.2320    8.6110    6.5000 hc        1 DGA      0.039200
     99 HBE2        5.9380    8.5070    4.8410 hc        1 DGA      0.039200
    100 HBW1        6.8030   10.8370    5.0230 hc        1 DGA      0.039200
    101 HBW2        6.0320   11.0240    6.6460 hc        1 DGA      0.039200
    102 HBH1        8.1690    8.9000    5.9190 hc        1 DGA      0.041200
    103 HBH2        7.4330    9.1590    7.5510 hc        1 DGA      0.041200
    104 HBF1        9.0920   11.2170    5.9320 hc        1 DGA      0.041200
    105 HBF2        8.3150   11.5420    7.5330 hc        1 DGA      0.041200
    106 HBN1       10.3950    9.3140    6.9760 hc        1 DGA      0.039200
    107 HBN2        9.6540    9.7000    8.5770 hc        1 DGA      0.039200
    108 HBS1       11.3550   11.6340    6.8530 hc        1 DGA      0.039200
    109 HBS2       10.6080   12.0340    8.4470 hc        1 DGA      0.039200
    110 HBV1       11.9140   10.1720    9.5270 hc        1 DGA      0.038700
    111 HBV2       12.6610    9.7710    7.9340 hc        1 DGA      0.038700
    112 HBG1       13.6530   12.0830    7.8150 hc        1 DGA      0.032700
    113 HBG2       14.1760   11.2000    9.3080 hc        1 DGA      0.032700
    114 HBG3       12.9030   12.4850    9.4120 hc        1 DGA      0.032700
    115 HG11       -2.3830   -0.3080   -2.1010 h1        1 DGA      0.071200
    116 HG12       -2.1760    0.9990   -0.8300 h1        1 DGA      0.071200
    117 HG2        -2.6750    1.9760   -3.1030 h1        1 DGA      0.089700
    118 HG31       -1.5450    0.1860   -4.5180 h1        1 DGA      0.063700
    119 HG32        0.0910    0.7220   -3.8640 h1        1 DGA      0.063700
    120 HXT        -0.4310    2.7620   -4.8360 ho        1 DGA      0.409000
@<TRIPOS>BOND
     1    1    2 1   
     2    1   19 2   
     3    1   39 1   
     4    2    3 1   
     5    2   45 1   
     6    2   46 1   
     7    3    4 1   
     8    3   47 1   
     9    3   48 1   
    10    4    5 1   
    11    4   49 1   
    12    4   50 1   
    13    5    6 1   
    14    5   51 1   
    15    5   52 1   
    16    6    7 1   
    17    6   53 1   
    18    6   54 1   
    19    7    8 1   
    20    7   55 1   
    21    7   56 1   
    22    8    9 1   
    23    8   57 1   
    24    8   58 1   
    25    9   10 1   
    26    9   59 1   
    27    9   60 1   
    28   10   11 1   
    29   10   61 1   
    30   10   62 1   
    31   11   12 1   
    32   11   63 1   
    33   11   64 1   
    34   12   13 1   
    35   12   65 1   
    36   12   66 1   
    37   13   14 1   
    38   13   67 1   
    39   13   68 1   
    40   14   15 1   
    41   14   69 1   
    42   14   70 1   
    43   15   16 1   
    44   15   71 1   
    45   15   72 1   
    46   16   17 1   
    47   16   73 1   
    48   16   74 1   
    49   17   18 1   
    50   17   75 1   
    51   17   76 1   
    52   18   77 1   
    53   18   78 1   
    54   18   79 1   
    55   20   21 1   
    56   20   38 2   
    57   20   42 1   
    58   21   22 1   
    59   21   80 1   
    60   21   81 1   
    61   22   23 1   
    62   22   82 1   
    63   22   83 1   
    64   23   24 1   
    65   23   84 1   
    66   23   85 1   
    67   24   25 1   
    68   24   86 1   
    69   24   87 1   
    70   25   26 1   
    71   25   88 1   
    72   25   89 1   
    73   26   27 1   
    74   26   90 1   
    75   26   91 1   
    76   27   28 1   
    77   27   92 1   
    78   27   93 1   
    79   28   29 1   
    80   28   94 1   
    81   28   95 1   
    82   29   30 1   
    83   29   96 1   
    84   29   97 1   
    85   30   31 1   
    86   30   98 1   
    87   30   99 1   
    88   31   32 1   
    89   31  100 1   
    90   31  101 1   
    91   32   33 1   
    92   32  102 1   
    93   32  103 1   
    94   33   34 1   
    95   33  104 1   
    96   33  105 1   
    97   34   35 1   
    98   34  106 1   
    99   34  107 1   
   100   35   36 1   
   101   35  108 1   
   102   35  109 1   
   103   36   37 1   
   104   36  110 1   
   105   36  111 1   
   106   37  112 1   
   107   37  113 1   
   108   37  114 1   
   109   39   40 1   
   110   40   41 1   
   111   40  115 1   
   112   40  116 1   
   113   41   42 1   
   114   41   43 1   
   115   41  117 1   
   116   43   44 1   
   117   43  118 1   
   118   43  119 1   
   119   44  120 1   
@<TRIPOS>SUBSTRUCTURE
     1 DGA         1 TEMP              0 ****  ****    0 ROOT
