@<TRIPOS>MOLECULE
molecule
   58    60     1     0     0
SMALL
bcc


@<TRIPOS>ATOM
      1 OAA          0.0000     0.0000     0.0000 o          1 DGB      -0.617100
      2 OAB          1.7400     1.5880   -11.9720 o          1 DGB      -0.604100
      3 CAC          1.9500     0.0000     1.2670 ce         1 DGB      -0.250200
      4 CAD          1.2750    -0.0000     2.4350 cf         1 DGB      -0.023200
      5 CAE         -1.3310     5.3920   -11.0870 ca         1 DGB      -0.112000
      6 CAF         -1.9230     4.1770   -10.7930 ca         1 DGB      -0.135500
      7 CAG          0.0230     5.4610   -11.3620 ca         1 DGB      -0.135500
      8 CAH          2.0640    -0.0010     6.1010 ca         1 DGB      -0.255300
      9 CAI          3.4450     0.0000     6.0290 ca         1 DGB       0.428200
     10 CAJ          1.3240    -0.0010     4.9320 ca         1 DGB      -0.071000
     11 CAK         -1.1650     3.0240   -10.7740 ca         1 DGB      -0.095500
     12 CAL          0.7920     4.3150   -11.3460 ca         1 DGB      -0.095500
     13 CAM          3.4100     0.0000     3.7240 ca         1 DGB       0.434200
     14 CAN          2.1530     0.0020    -3.5990 c3         1 DGB      -0.101400
     15 CAO          1.3870     0.0030    -4.9240 c3         1 DGB      -0.080400
     16 CAP          1.1590     0.0010    -2.4360 c3         1 DGB       0.112000
     17 CAQ          2.3810     0.0030    -6.0870 c3         1 DGB      -0.077400
     18 CAR          2.6060    -0.1210    -8.5730 c3         1 DGB      -0.095900
     19 CAS          0.8310     1.3100    -7.5470 c3         1 DGB      -0.095900
     20 CAT          1.8340    -0.1560    -9.8950 c3         1 DGB       0.099500
     21 CAU          0.0390     1.2920    -8.8590 c3         1 DGB       0.099500
     22 NAV          4.0670     0.0000     4.8650 nb         1 DGB      -0.691000
     23 NAW          1.8910     0.0010    -1.1670 ns         1 DGB      -0.582900
     24 CAX          1.2170     0.0000     0.0000 c          1 DGB       0.664300
     25 CAZ          2.0120    -0.0010     3.7100 ca         1 DGB      -0.204100
     26 CBA          0.2020     3.0860   -11.0500 ca         1 DGB      -0.137600
     27 CBB          1.6160     0.0030    -7.4120 c3         1 DGB      -0.071700
     28 NBC          0.9660     1.0270    -9.9680 n          1 DGB      -0.485800
     29 HAC          3.0330    -0.0000     1.2670 ha         1 DGB       0.128000
     30 HAD          0.1920    -0.0000     2.4350 ha         1 DGB       0.161000
     31 HAF         -2.9840     4.1300   -10.5780 ha         1 DGB       0.134000
     32 HAG          0.4800     6.4160   -11.5920 ha         1 DGB       0.134000
     33 HAH          1.5670    -0.0010     7.0630 ha         1 DGB       0.141000
     34 HAI          4.0260     0.0000     6.9430 h4         1 DGB       0.025100
     35 HAJ          0.2410    -0.0020     4.9600 ha         1 DGB       0.144000
     36 HAK         -1.6300     2.0730   -10.5430 ha         1 DGB       0.142000
     37 HAL          1.8520     4.3700   -11.5620 ha         1 DGB       0.142000
     38 HAM          3.9570     0.0000     2.7890 h4         1 DGB       0.026100
     39 HAN          2.7750    -0.8830    -3.5420 hc         1 DGB       0.045700
     40 HANA         2.7760     0.8860    -3.5410 hc         1 DGB       0.045700
     41 HAO          0.7650     0.8880    -4.9810 hc         1 DGB       0.047200
     42 HAOA         0.7640    -0.8810    -4.9820 hc         1 DGB       0.047200
     43 HAP          0.5360     0.8860    -2.4930 h1         1 DGB       0.053700
     44 HAPA         0.5360    -0.8830    -2.4930 h1         1 DGB       0.053700
     45 HAQ          3.0040    -0.8810    -6.0300 hc         1 DGB       0.045200
     46 HAQA         3.0040     0.8880    -6.0300 hc         1 DGB       0.045200
     47 HAR          3.2750     0.7310    -8.5690 hc         1 DGB       0.051950
     48 HARA         3.1760    -1.0360    -8.4640 hc         1 DGB       0.051950
     49 HAS          0.1450     1.4070    -6.7140 hc         1 DGB       0.051950
     50 HASA         1.5200     2.1460    -7.5540 hc         1 DGB       0.051950
     51 HAT          2.5330    -0.1440   -10.7230 h1         1 DGB       0.059700
     52 HATA         1.2280    -1.0530    -9.9370 h1         1 DGB       0.059700
     53 HAU         -0.4390     2.2530    -9.0060 h1         1 DGB       0.059700
     54 HAUA        -0.7100     0.5100    -8.8180 h1         1 DGB       0.059700
     55 HNAW         2.8920    -0.0060    -1.1670 hn         1 DGB       0.313500
     56 HBB          0.9270    -0.8330    -7.4360 hc         1 DGB       0.052700
     57 CAY          1.0190     1.8550   -11.0300 c          1 DGB       0.676700
     58 HAE         -1.9310     6.2940   -11.1010 ha         1 DGB       0.132000
@<TRIPOS>BOND
     1     1    24 2
     2     2    57 2
     3     3     4 2
     4     3    24 1
     5     4    25 1
     6     5     6 ar
     7     5     7 ar
     8     6    11 ar
     9     7    12 ar
    10     8     9 ar
    11     8    10 ar
    12     9    22 ar
    13    10    25 ar
    14    11    26 ar
    15    12    26 ar
    16    13    22 ar
    17    13    25 ar
    18    14    15 1
    19    14    16 1
    20    15    17 1
    21    16    23 1
    22    17    27 1
    23    18    20 1
    24    18    27 1
    25    19    21 1
    26    19    27 1
    27    20    28 1
    28    21    28 1
    29    23    24 1
    30    57    26 1
    31    57    28 1
    32     3    29 1
    33     4    30 1
    34     5    58 1
    35     6    31 1
    36     7    32 1
    37     8    33 1
    38     9    34 1
    39    10    35 1
    40    11    36 1
    41    12    37 1
    42    13    38 1
    43    14    39 1
    44    14    40 1
    45    15    41 1
    46    15    42 1
    47    16    43 1
    48    16    44 1
    49    17    45 1
    50    17    46 1
    51    18    47 1
    52    18    48 1
    53    19    49 1
    54    19    50 1
    55    20    51 1
    56    20    52 1
    57    21    53 1
    58    21    54 1
    59    23    55 1
    60    27    56 1
@<TRIPOS>SUBSTRUCTURE
     1 DGB         1 TEMP              0 ****  ****    0 ROOT
