@<TRIPOS>MOLECULE
DGB
   58    62     1     0     0
SMALL
bcc


@<TRIPOS>ATOM
      1 OAA          0.0000     0.0000     0.0000 o          1 DGB      -0.437000
      2 OAB          1.7400     1.5880   -11.9720 o          1 DGB      -0.406000
      3 CAC          1.9500     0.0000     1.2670 c2         1 DGB      -0.160000
      4 CAD          1.2750    -0.0000     2.4350 c2         1 DGB       0.029000
      5 CAE         -1.3310     5.3920   -11.0870 ca         1 DGB      -0.084000
      6 CAF         -1.9230     4.1770   -10.7930 ca         1 DGB      -0.108000
      7 CAG          0.0230     5.4610   -11.3620 ca         1 DGB      -0.108000
      8 CAH          2.0640    -0.0010     6.1010 c2         1 DGB      -0.117000
      9 CAI          3.4450     0.0000     6.0290 c2         1 DGB      -0.104000
     10 CAJ          1.3240    -0.0010     4.9320 c2         1 DGB      -0.128000
     11 CAK         -1.1650     3.0240   -10.7740 ca         1 DGB      -0.068500
     12 CAL          0.7920     4.3150   -11.3460 ca         1 DGB      -0.068500
     13 CAM          3.4100     0.0000     3.7240 c2         1 DGB      -0.116000
     14 CAN          2.1530     0.0020    -3.5990 c3         1 DGB      -0.120000
     15 CAO          1.3870     0.0030    -4.9240 c3         1 DGB      -0.109000
     16 CAP          1.1590     0.0010    -2.4360 c3         1 DGB      -0.062000
     17 CAQ          2.3810     0.0030    -6.0870 c3         1 DGB      -0.103000
     18 CAR          2.6060    -0.1210    -8.5730 c3         1 DGB      -0.122000
     19 CAS          0.8310     1.3100    -7.5470 c3         1 DGB      -0.122000
     20 CAT          1.8340    -0.1560    -9.8950 c3         1 DGB      -0.081000
     21 CAU          0.0390     1.2920    -8.8590 c3         1 DGB      -0.081000
     22 NAV          4.0670     0.0000     4.8650 n2         1 DGB      -0.020000
     23 NAW          1.8910     0.0010    -1.1670 n7         1 DGB      -0.032000
     24 CAX          1.2170     0.0000     0.0000 c3         1 DGB       0.351000
     25 CAZ          2.0120    -0.0010     3.7100 c3         1 DGB      -0.053000
     26 CBA          0.2020     3.0860   -11.0500 ca         1 DGB      -0.125000
     27 CBB          1.6160     0.0030    -7.4120 c3         1 DGB      -0.093000
     28 NBC          0.9660     1.0270    -9.9680 n          1 DGB      -0.005000
     29 HAC          1.4850     0.8750     0.8290 DU         1 DGB       0.028000
     30 HAD          1.7400     0.8750     2.8730 DU         1 DGB       0.086000
     31 HAF         -2.9840     4.1290   -10.5780 ha         1 DGB       0.106000
     32 HAG          0.4800     6.4160   -11.5920 ha         1 DGB       0.106000
     33 HAH          1.5670    -0.0010     7.0630 ha         1 DGB       0.113000
     34 HAI          4.0260     0.0000     6.9430 h4         1 DGB       0.120000
     35 HAJ          0.2410    -0.0020     4.9600 ha         1 DGB       0.124000
     36 HAK         -1.6290     2.0730   -10.5430 ha         1 DGB       0.114500
     37 HAL          1.8520     4.3700   -11.5620 ha         1 DGB       0.114500
     38 HAM          3.9570     0.0000     2.7890 h4         1 DGB       0.132000
     39 HAN          2.7750    -0.8830    -3.5420 hc         1 DGB       0.057500
     40 HANA         2.7760     0.8860    -3.5410 hc         1 DGB       0.057500
     41 HAO          0.7650     0.8880    -4.9810 hc         1 DGB       0.061500
     42 HAOA         0.7640    -0.8810    -4.9820 hc         1 DGB       0.061500
     43 HAP          0.5360     0.8860    -2.4930 h1         1 DGB       0.066500
     44 HAPA         0.5360    -0.8830    -2.4930 h1         1 DGB       0.066500
     45 HAQ          3.0040     0.8880    -6.0300 hc         1 DGB       0.058000
     46 HAQA         3.0040    -0.8810    -6.0300 hc         1 DGB       0.058000
     47 HAR          3.1760    -1.0360    -8.4640 hc         1 DGB       0.065250
     48 HARA         3.2750     0.7310    -8.5690 hc         1 DGB       0.065250
     49 HAS          0.1450     1.4070    -6.7140 hc         1 DGB       0.065250
     50 HASA         1.5200     2.1460    -7.5540 hc         1 DGB       0.065250
     51 HAT          1.2280    -1.0530    -9.9370 h1         1 DGB       0.075250
     52 HATA         2.5330    -0.1440   -10.7230 h1         1 DGB       0.075250
     53 HAU         -0.4390     2.2530    -9.0070 h1         1 DGB       0.075250
     54 HAUA        -0.7100     0.5100    -8.8180 h1         1 DGB       0.075250
     55 HNAW         2.8920    -0.0240    -1.1670 hn         1 DGB       0.098000
     56 HBB          0.9270    -0.8330    -7.4360 hc         1 DGB       0.072000
     57 CAY          1.0190     1.8550   -11.0300 c2         1 DGB       0.285000
     58 HAE         -1.9310     6.2940   -11.1010 ha         1 DGB       0.103000
@<TRIPOS>BOND
     1     1    24 1   
     2     2    57 1   
     3     3     4 1   
     4     3    24 1   
     5     3    29 1   
     6     4    25 1   
     7     4    30 1   
     8     5     6 1   
     9     5     7 1   
    10     5    58 1   
    11     6    11 1   
    12     6    31 1   
    13     7    12 1   
    14     7    32 1   
    15     8     9 1   
    16     8    10 1   
    17     8    33 1   
    18     9    22 1   
    19     9    34 1   
    20    10    25 1   
    21    10    35 1   
    22    11    26 1   
    23    11    36 1   
    24    12    26 1   
    25    12    37 1   
    26    13    22 1   
    27    13    25 1   
    28    13    38 1   
    29    14    15 1   
    30    14    16 1   
    31    14    39 1   
    32    14    40 1   
    33    15    17 1   
    34    15    41 1   
    35    15    42 1   
    36    16    23 1   
    37    16    43 1   
    38    16    44 1   
    39    17    27 1   
    40    17    45 1   
    41    17    46 1   
    42    18    20 1   
    43    18    27 1   
    44    18    47 1   
    45    18    48 1   
    46    19    21 1   
    47    19    27 1   
    48    19    49 1   
    49    19    50 1   
    50    20    28 1   
    51    20    51 1   
    52    20    52 1   
    53    21    28 1   
    54    21    53 1   
    55    21    54 1   
    56    23    24 1   
    57    23    55 1   
    58    24    29 1   
    59    25    30 1   
    60    26    57 1   
    61    27    56 1   
    62    28    57 1   
@<TRIPOS>SUBSTRUCTURE
     1 DGB         1 TEMP              0 ****  ****    0 ROOT
