@<TRIPOS>MOLECULE
molecule
   35    36     1     0     0
SMALL
bcc


@<TRIPOS>ATOM
      1 CAK          0.0000     0.0000     0.0000 c3         1 DGF      -0.123400
      2 CAI          1.5540     0.0000     0.0000 c3         1 DGF      -0.119400
      3 CAJ          1.8820     0.0000     1.5090 c3         1 DGF       0.136400
      4 OAP          0.7300    -0.4970     2.2020 os         1 DGF      -0.386600
      5 CAY         -0.2930    -0.8530     1.2600 c3         1 DGF       0.162100
      6 CAV         -1.6740    -0.5110     1.8230 c3         1 DGF      -0.046900
      7 SAQ         -1.7480     1.2440     2.3690 ss         1 DGF      -0.422200
      8 CAU         -1.9280    -1.2480     3.1250 ce         1 DGF       0.424300
      9 CAS         -1.6260    -2.6920     3.2630 c          1 DGF       0.811300
     10 OAG         -1.1640    -3.3080     2.3230 o          1 DGF      -0.807800
     11 OAE         -1.8610    -3.3220     4.4300 o          1 DGF      -0.807800
     12 NAN         -2.4050    -0.5870     4.0820 n2         1 DGF      -0.577900
     13 CAZ         -2.6910     0.8450     3.8960 c3         1 DGF       0.245600
     14 CBA         -2.1740     1.6610     5.0830 c3         1 DGF      -0.160700
     15 CAW         -2.4440     3.1460     4.8370 c3         1 DGF       0.147100
     16 CAC         -1.9280     3.9620     6.0230 c3         1 DGF      -0.124100
     17 OAH         -1.7730     3.5610     3.6450 oh         1 DGF      -0.572800
     18 CAT         -2.8810     1.2240     6.3390 c          1 DGF       0.593900
     19 OAF         -2.2470     0.7770     7.2650 o          1 DGF      -0.510100
     20 H1          -0.3880    -0.4790    -0.8910 hc         1 DGF       0.051700
     21 H2          -0.3880     1.0050     0.1130 hc         1 DGF       0.051700
     22 H3           1.9370    -0.8940    -0.4760 hc         1 DGF       0.040200
     23 H4           1.9370     0.8940    -0.4760 hc         1 DGF       0.040200
     24 H5           2.7310    -0.6450     1.6990 h1         1 DGF       0.033200
     25 H6           2.0990     1.0090     1.8360 h1         1 DGF       0.033200
     26 H7          -0.2300    -1.9070     1.0200 h1         1 DGF       0.113700
     27 H10         -3.7520     1.0060     3.7430 h2         1 DGF       0.064700
     28 H11         -1.1080     1.5010     5.1940 hc         1 DGF       0.115700
     29 H12         -3.5100     3.3060     4.7250 h1         1 DGF       0.019700
     30 H13         -0.9180     3.6510     6.2630 hc         1 DGF       0.040033
     31 H14         -1.9300     5.0140     5.7660 hc         1 DGF       0.040033
     32 H15         -2.5690     3.7980     6.8800 hc         1 DGF       0.040033
     33 H16         -2.1850     4.3390     3.3070 ho         1 DGF       0.388000
     34 H17         -3.9610     1.2800     6.4000 h4         1 DGF      -0.018800
     35 H18         -2.4560    -0.7220     1.1030 h1         1 DGF       0.082700
@<TRIPOS>BOND
     1    17    15 1
     2     7    13 1
     3     7     6 1
     4    13    12 1
     5    13    14 1
     6     2     1 1
     7     2     3 1
     8    12     8 2
     9    16    15 1
    10     1     5 1
    11     6     8 1
    12     6     5 1
    13     8     9 1
    14    15    14 1
    15     4     3 1
    16     4     5 1
    17     9    10 1
    18     9    11 1
    19    14    18 1
    20    18    19 2
    21     1    20 1
    22     1    21 1
    23     2    22 1
    24     2    23 1
    25     3    24 1
    26     3    25 1
    27     5    26 1
    28    13    27 1
    29    14    28 1
    30    15    29 1
    31    16    30 1
    32    16    31 1
    33    16    32 1
    34    17    33 1
    35    18    34 1
    36     6    35 1
@<TRIPOS>SUBSTRUCTURE
     1 DGF         1 TEMP              0 ****  ****    0 ROOT
