@<TRIPOS>MOLECULE
molecule
  124   124     1     0     0
SMALL
bcc


@<TRIPOS>ATOM
      1 C16          0.0000     0.0000     0.0000 c3         1 DGG      -0.088100
      2 C15          1.5210     0.0000     0.0000 c3         1 DGG      -0.081400
      3 C14          2.1350     0.0000     1.4030 c3         1 DGG      -0.077400
      4 C13          3.6660     0.0310     1.3940 c3         1 DGG      -0.077400
      5 C12          4.2830     0.0280     2.7960 c3         1 DGG      -0.078400
      6 C11          5.8090     0.1370     2.7900 c3         1 DGG      -0.077400
      7 C10          6.3720     0.0980     4.2140 c3         1 DGG      -0.077400
      8 C9           7.8990     0.1790     4.2070 c3         1 DGG      -0.076400
      9 C8           8.4630     0.1750     5.6290 c3         1 DGG      -0.076400
     10 C7           9.9900     0.2930     5.6870 c3         1 DGG      -0.078400
     11 C6          10.6050     0.3240     7.0900 c3         1 DGG      -0.075400
     12 C5          12.1260     0.5020     7.0870 c3         1 DGG      -0.072400
     13 C4          12.6720     0.6070     8.5120 c3         1 DGG      -0.076400
     14 C3          14.1910     0.8060     8.5810 c3         1 DGG      -0.075400
     15 C2          14.7630     0.9830     9.9860 c3         1 DGG      -0.136400
     16 C1          16.2650     1.1290     9.9800 c          1 DGG       0.638100
     17 O1          16.9550     1.0850     8.9690 o          1 DGG      -0.530000
     18 O17         16.7170     1.3170    11.2530 os         1 DGG      -0.421900
     19 C17         18.1320     1.4730    11.3930 c3         1 DGG       0.137400
     20 C19         18.4660     1.6710    12.8650 c3         1 DGG       0.143100
     21 O19         18.0070     0.5200    13.5790 os         1 DGG      -0.404900
     22 C21         18.2090     0.5470    14.9290 c          1 DGG       0.647100
     23 O21         18.7380     1.4510    15.5620 o          1 DGG      -0.523000
     24 C22         17.6800    -0.7180    15.5580 c3         1 DGG      -0.135400
     25 C23         17.8280    -0.7220    17.0770 c3         1 DGG      -0.075400
     26 C24         17.2710    -1.9990    17.7160 c3         1 DGG      -0.076400
     27 C25         17.4070    -1.9580    19.2400 c3         1 DGG      -0.077400
     28 C26         16.8550    -3.2060    19.9340 c3         1 DGG      -0.079400
     29 C27         16.9670    -3.1540    21.4600 c3         1 DGG      -0.075400
     30 C28         16.4690    -4.4530    22.0950 c3         1 DGG      -0.057400
     31 C29         16.6130    -4.4230    23.6090 cx         1 DGG      -0.123700
     32 C30         17.6090    -5.3310    24.2300 cx         1 DGG      -0.126700
     33 C39         16.1400    -5.6010    24.3750 cx         1 DGG      -0.138400
     34 C31         18.4180    -6.1970    23.3370 c3         1 DGG      -0.057400
     35 C32         19.9120    -5.8130    23.3270 c3         1 DGG      -0.074400
     36 C33         20.7510    -6.7350    22.4390 c3         1 DGG      -0.077400
     37 C34         22.2310    -6.3490    22.4820 c3         1 DGG      -0.078400
     38 C35         23.1190    -7.2570    21.6270 c3         1 DGG      -0.081400
     39 C36         24.5880    -6.8620    21.6460 c3         1 DGG      -0.088100
     40 C18         19.9680     1.8150    13.0830 c3         1 DGG       0.167400
     41 P           22.2450     0.5770    12.7670 p5         1 DGG       1.304800
     42 OP1         22.4860     0.5930    14.3680 o          1 DGG      -0.801000
     43 OP2         20.6360     0.6420    12.6310 os         1 DGG      -0.587200
     44 OP3         22.9930     1.6470    12.0240 o          1 DGG      -0.801000
     45 OP4         22.5930    -0.9400    12.3200 os         1 DGG      -0.557200
     46 C40         21.9480    -2.0320    12.9510 c3         1 DGG       0.199400
     47 C41         22.4460    -3.3420    12.3540 c3         1 DGG       0.143100
     48 O42         22.1220    -3.3660    10.9620 oh         1 DGG      -0.598800
     49 C43         21.7800    -4.5440    13.0120 c3         1 DGG       0.126400
     50 O44         22.2620    -5.7340    12.3970 oh         1 DGG      -0.609800
     51 H161        -0.3610    -0.0060    -1.0210 hc         1 DGG       0.032700
     52 H162        -0.3610    -0.8810     0.5160 hc         1 DGG       0.032700
     53 H163        -0.3610     0.8880     0.5050 hc         1 DGG       0.032700
     54 H151         1.8670     0.8800    -0.5290 hc         1 DGG       0.036700
     55 H152         1.8670    -0.8800    -0.5290 hc         1 DGG       0.036700
     56 H141         1.8090    -0.8920     1.9240 hc         1 DGG       0.037700
     57 H142         1.7730     0.8690     1.9400 hc         1 DGG       0.037700
     58 H131         3.9910     0.9240     0.8740 hc         1 DGG       0.037700
     59 H132         4.0270    -0.8360     0.8540 hc         1 DGG       0.037700
     60 H121         3.8780     0.8640     3.3540 hc         1 DGG       0.037700
     61 H122         4.0030    -0.8910     3.2960 hc         1 DGG       0.037700
     62 H111         6.2210    -0.6890     2.2230 hc         1 DGG       0.039700
     63 H112         6.0960     1.0700     2.3200 hc         1 DGG       0.039700
     64 H101         6.0680    -0.8260     4.6900 hc         1 DGG       0.039700
     65 H102         5.9740     0.9350     4.7760 hc         1 DGG       0.039700
     66 HC91         8.2040     1.0910     3.7070 hc         1 DGG       0.039700
     67 HC92         8.2970    -0.6710     3.6650 hc         1 DGG       0.039700
     68 HC81         8.0310     1.0070     6.1740 hc         1 DGG       0.036700
     69 HC82         8.1680    -0.7470     6.1150 hc         1 DGG       0.036700
     70 HC71        10.2780     1.2010     5.1730 hc         1 DGG       0.036700
     71 HC72        10.4130    -0.5490     5.1520 hc         1 DGG       0.036700
     72 HC61        10.3660    -0.6050     7.5940 hc         1 DGG       0.036700
     73 HC62        10.1620     1.1430     7.6440 hc         1 DGG       0.036700
     74 HC51        12.5820    -0.3480     6.5940 hc         1 DGG       0.042200
     75 HC52        12.3770     1.4040     6.5430 hc         1 DGG       0.042200
     76 HC41        12.4190    -0.3010     9.0470 hc         1 DGG       0.035700
     77 HC42        12.1920     1.4440     9.0050 hc         1 DGG       0.035700
     78 HC31        14.6660    -0.0550     8.1270 hc         1 DGG       0.051700
     79 HC32        14.4440     1.6830     7.9980 hc         1 DGG       0.051700
     80 HC21        14.3260     1.8680    10.4330 hc         1 DGG       0.068700
     81 HC22        14.4970     0.1200    10.5840 hc         1 DGG       0.068700
     82 H171        18.4590     2.3370    10.8270 h1         1 DGG       0.072700
     83 H172        18.6340     0.5870    11.0230 h1         1 DGG       0.072700
     84 H191        17.9590     2.5530    13.2360 h1         1 DGG       0.048700
     85 H221        18.2210    -1.5640    15.1510 hc         1 DGG       0.066700
     86 H222        16.6310    -0.8210    15.3080 hc         1 DGG       0.066700
     87 H231        18.8780    -0.6340    17.3270 hc         1 DGG       0.057700
     88 H232        17.2980     0.1320    17.4830 hc         1 DGG       0.057700
     89 H241        17.8160    -2.8540    17.3340 hc         1 DGG       0.035200
     90 H242        16.2240    -2.0990    17.4550 hc         1 DGG       0.035200
     91 H251        16.8740    -1.0910    19.6120 hc         1 DGG       0.042200
     92 H252        18.4550    -1.8560    19.4920 hc         1 DGG       0.042200
     93 H261        17.4010    -4.0710    19.5760 hc         1 DGG       0.034700
     94 H262        15.8110    -3.3190    19.6670 hc         1 DGG       0.034700
     95 H271        18.0040    -2.9990    21.7340 hc         1 DGG       0.042200
     96 H272        16.3750    -2.3270    21.8310 hc         1 DGG       0.042200
     97 H281        15.4250    -4.5930    21.8420 hc         1 DGG       0.047200
     98 H282        17.0440    -5.2820    21.7010 hc         1 DGG       0.047200
     99 H291        16.4900    -3.4760    24.1200 hc         1 DGG       0.076700
    100 H301        18.0810    -4.9290    25.1180 hc         1 DGG       0.075700
    101 H391        15.7540    -6.4210    23.7820 hc         1 DGG       0.070700
    102 H392        15.7190    -5.3870    25.3500 hc         1 DGG       0.070700
    103 H311        18.3240    -7.2240    23.6680 hc         1 DGG       0.046700
    104 H312        18.0310    -6.1180    22.3280 hc         1 DGG       0.046700
    105 H321        20.2920    -5.8630    24.3400 hc         1 DGG       0.040700
    106 H322        20.0090    -4.7970    22.9660 hc         1 DGG       0.040700
    107 H331        20.6400    -7.7570    22.7830 hc         1 DGG       0.038200
    108 H332        20.3950    -6.6640    21.4180 hc         1 DGG       0.038200
    109 H341        22.5720    -6.3970    23.5090 hc         1 DGG       0.039200
    110 H342        22.3340    -5.3310    22.1280 hc         1 DGG       0.039200
    111 H351        22.7650    -7.2240    20.6040 hc         1 DGG       0.036200
    112 H352        23.0290    -8.2730    21.9930 hc         1 DGG       0.036200
    113 H361        25.1540    -7.5480    21.0280 hc         1 DGG       0.033700
    114 H362        24.9590    -6.9020    22.6630 hc         1 DGG       0.033700
    115 H363        24.6960    -5.8550    21.2620 hc         1 DGG       0.033700
    116 H181        20.3310     2.6720    12.5290 h1         1 DGG       0.063200
    117 H182        20.1660     1.9590    14.1380 h1         1 DGG       0.063200
    118 H401        22.1670    -2.0140    14.0120 h1         1 DGG       0.036700
    119 H402        20.8780    -1.9520    12.8030 h1         1 DGG       0.036700
    120 H411        23.5200    -3.4110    12.4770 h1         1 DGG       0.046700
    121 H421        22.9160    -3.4020    10.4550 ho         1 DGG       0.401000
    122 H431        22.0200    -4.5580    14.0680 h1         1 DGG       0.023700
    123 H432        20.7060    -4.4780    12.8840 h1         1 DGG       0.023700
    124 H441        21.9310    -6.4840    12.8620 ho         1 DGG       0.388000
@<TRIPOS>BOND
     1     1     2 1
     2     1    51 1
     3     1    52 1
     4     1    53 1
     5     2     3 1
     6     2    54 1
     7     2    55 1
     8     3     4 1
     9     3    56 1
    10     3    57 1
    11     4     5 1
    12     4    58 1
    13     4    59 1
    14     5     6 1
    15     5    60 1
    16     5    61 1
    17     6     7 1
    18     6    62 1
    19     6    63 1
    20     7     8 1
    21     7    64 1
    22     7    65 1
    23     8     9 1
    24     8    66 1
    25     8    67 1
    26     9    10 1
    27     9    68 1
    28     9    69 1
    29    10    11 1
    30    10    70 1
    31    10    71 1
    32    11    12 1
    33    11    72 1
    34    11    73 1
    35    12    13 1
    36    12    74 1
    37    12    75 1
    38    13    14 1
    39    13    76 1
    40    13    77 1
    41    14    15 1
    42    14    78 1
    43    14    79 1
    44    15    16 1
    45    15    80 1
    46    15    81 1
    47    16    17 2
    48    16    18 1
    49    18    19 1
    50    19    20 1
    51    19    82 1
    52    19    83 1
    53    20    21 1
    54    20    40 1
    55    20    84 1
    56    21    22 1
    57    22    23 2
    58    22    24 1
    59    24    25 1
    60    24    85 1
    61    24    86 1
    62    25    26 1
    63    25    87 1
    64    25    88 1
    65    26    27 1
    66    26    89 1
    67    26    90 1
    68    27    28 1
    69    27    91 1
    70    27    92 1
    71    28    29 1
    72    28    93 1
    73    28    94 1
    74    29    30 1
    75    29    95 1
    76    29    96 1
    77    30    31 1
    78    30    97 1
    79    30    98 1
    80    31    32 1
    81    31    33 1
    82    31    99 1
    83    32    33 1
    84    32    34 1
    85    32   100 1
    86    33   101 1
    87    33   102 1
    88    34    35 1
    89    34   103 1
    90    34   104 1
    91    35    36 1
    92    35   105 1
    93    35   106 1
    94    36    37 1
    95    36   107 1
    96    36   108 1
    97    37    38 1
    98    37   109 1
    99    37   110 1
   100    38    39 1
   101    38   111 1
   102    38   112 1
   103    39   113 1
   104    39   114 1
   105    39   115 1
   106    40    43 1
   107    40   116 1
   108    40   117 1
   109    41    42 1
   110    41    43 1
   111    41    44 1
   112    41    45 1
   113    45    46 1
   114    46    47 1
   115    46   118 1
   116    46   119 1
   117    47    48 1
   118    47    49 1
   119    47   120 1
   120    48   121 1
   121    49    50 1
   122    49   122 1
   123    49   123 1
   124    50   124 1
@<TRIPOS>SUBSTRUCTURE
     1 DGG         1 TEMP              0 ****  ****    0 ROOT
