@<TRIPOS>MOLECULE
DGG
  124   124     1     0     0
SMALL
bcc


@<TRIPOS>ATOM
      1 C16         0.2500    1.8410   -0.1630 c3        1 DGG     -0.092100
      2 C15         1.7370    1.6010   -0.1400 c3        1 DGG     -0.080400
      3 C14         2.2760    1.5840    1.2750 c3        1 DGG     -0.079400
      4 C13         3.7700    1.3420    1.2930 c3        1 DGG     -0.079400
      5 C12         4.3070    1.3250    2.7080 c3        1 DGG     -0.078400
      6 C11         5.8010    1.0830    2.7260 c3        1 DGG     -0.079400
      7 C10         6.3380    1.0650    4.1410 c3        1 DGG     -0.078400
      8 C9          7.8320    0.8220    4.1590 c3        1 DGG     -0.079400
      9 C8          8.3690    0.8010    5.5740 c3        1 DGG     -0.078400
     10 C7          9.8630    0.5570    5.5920 c3        1 DGG     -0.079400
     11 C6         10.3990    0.5320    7.0080 c3        1 DGG     -0.078400
     12 C5         11.8920    0.2850    7.0250 c3        1 DGG     -0.079400
     13 C4         12.4270    0.2560    8.4410 c3        1 DGG     -0.078400
     14 C3         13.9180    0.0000    8.4550 c3        1 DGG     -0.079400
     15 C2         14.4500   -0.0150    9.8720 c3        1 DGG     -0.130400
     16 C1         15.8960   -0.4110    9.9040 c         1 DGG      0.632100
     17 O1         16.4910   -1.1830    9.1480 o         1 DGG     -0.549000
     18 O17        16.5700    0.1840   10.9240 os        1 DGG     -0.447900
     19 C17        17.9530   -0.1750   11.1170 c3        1 DGG      0.146400
     20 C19        18.2700    0.1400   12.5770 c3        1 DGG      0.118100
     21 O19        18.0670   -1.0950   13.2880 os        1 DGG     -0.449900
     22 C21        18.0290   -1.0320   14.6580 c         1 DGG      0.673100
     23 O21        17.7100    0.0350   15.1880 o         1 DGG     -0.576000
     24 C22        18.4010   -2.3330   15.2910 c3        1 DGG     -0.154400
     25 C23        17.8160   -2.4730   16.6770 c3        1 DGG     -0.070400
     26 C24        18.3490   -3.7150   17.3590 c3        1 DGG     -0.080400
     27 C25        17.7750   -3.8640   18.7520 c3        1 DGG     -0.077400
     28 C26        18.3040   -5.1070   19.4330 c3        1 DGG     -0.080400
     29 C27        17.7440   -5.2480   20.8320 c3        1 DGG     -0.076400
     30 C28        18.2660   -6.5010   21.5070 c3        1 DGG     -0.053400
     31 C29        17.7290   -6.6500   22.8930 cx        1 DGG     -0.110700
     32 C30        18.5520   -6.3800   24.1340 cx        1 DGG     -0.117700
     33 C39        18.1890   -7.7910   23.7590 cx        1 DGG     -0.137400
     34 C31        19.9810   -5.9460   24.0910 c3        1 DGG     -0.049400
     35 C32        20.1070   -4.4420   23.9570 c3        1 DGG     -0.078400
     36 C33        21.5580   -4.0120   23.9590 c3        1 DGG     -0.078400
     37 C34        21.6860   -2.5110   23.8110 c3        1 DGG     -0.079400
     38 C35        23.1370   -2.0780   23.8150 c3        1 DGG     -0.079400
     39 C36        23.2680   -0.5850   23.6620 c3        1 DGG     -0.093100
     40 C18        19.7270    0.6110   12.7410 c3        1 DGG      0.176400
     41 P          21.7330   -1.0590   12.8190 p5        1 DGG      1.440800
     42 OP1        21.0990   -1.3910   14.1140 o         1 DGG     -0.827500
     43 OP2        20.6090   -0.1570   11.9940 os        1 DGG     -0.579200
     44 OP3        23.0630   -0.4720   12.6210 o         1 DGG     -0.827500
     45 OP4        21.6170   -2.4080   11.8740 os        1 DGG     -0.570200
     46 C40        20.4260   -3.1270   11.9570 c3        1 DGG      0.153400
     47 C41        20.7440   -4.5690   12.3770 c3        1 DGG      0.083100
     48 O42        21.7520   -5.1450   11.5530 oh        1 DGG     -0.641800
     49 C43        19.5040   -5.4520   12.2390 c3        1 DGG      0.131400
     50 O44        19.7610   -6.7880   12.6270 oh        1 DGG     -0.619800
     51 H161       -0.2880    1.0390    0.3980 hc        1 DGG      0.031367
     52 H162        0.0020    2.8230    0.3080 hc        1 DGG      0.031367
     53 H163       -0.1260    1.8500   -1.2140 hc        1 DGG      0.031367
     54 H151        2.2580    2.4020   -0.7290 hc        1 DGG      0.038200
     55 H152        1.9690    0.6230   -0.6390 hc        1 DGG      0.038200
     56 H141        2.0470    2.5620    1.7750 hc        1 DGG      0.038700
     57 H142        1.7580    0.7820    1.8640 hc        1 DGG      0.038700
     58 H131        4.2880    2.1440    0.7040 hc        1 DGG      0.039200
     59 H132        3.9990    0.3640    0.7920 hc        1 DGG      0.039200
     60 H121        4.0790    2.3030    3.2090 hc        1 DGG      0.039200
     61 H122        3.7890    0.5230    3.2970 hc        1 DGG      0.039200
     62 H111        6.3200    1.8850    2.1370 hc        1 DGG      0.039700
     63 H112        6.0300    0.1050    2.2240 hc        1 DGG      0.039700
     64 H101        5.8200    0.2630    4.7300 hc        1 DGG      0.038700
     65 H102        6.1100    2.0420    4.6420 hc        1 DGG      0.038700
     66 HC91        8.0610   -0.1550    3.6560 hc        1 DGG      0.039700
     67 HC92        8.3510    1.6250    3.5720 hc        1 DGG      0.039700
     68 HC81        8.1420    1.7780    6.0770 hc        1 DGG      0.038700
     69 HC82        7.8490   -0.0010    6.1620 hc        1 DGG      0.038700
     70 HC71       10.0900   -0.4190    5.0870 hc        1 DGG      0.040200
     71 HC72       10.3830    1.3610    5.0070 hc        1 DGG      0.040200
     72 HC61        9.8770   -0.2710    7.5930 hc        1 DGG      0.038700
     73 HC62       10.1730    1.5080    7.5130 hc        1 DGG      0.038700
     74 HC51       12.1180   -0.6900    6.5190 hc        1 DGG      0.041700
     75 HC52       12.4140    1.0890    6.4420 hc        1 DGG      0.041700
     76 HC41       12.2060    1.2320    8.9470 hc        1 DGG      0.039200
     77 HC42       11.9010   -0.5460    9.0250 hc        1 DGG      0.039200
     78 HC31       14.4450    0.7950    7.8650 hc        1 DGG      0.056700
     79 HC32       14.1460   -0.9820    7.9610 hc        1 DGG      0.056700
     80 HC21       14.3260    0.9910   10.3520 hc        1 DGG      0.073700
     81 HC22       13.8860   -0.7610   10.4940 hc        1 DGG      0.073700
     82 H171       18.5730    0.4590   10.4340 h1        1 DGG      0.080700
     83 H172       18.1170   -1.2600   10.8880 h1        1 DGG      0.080700
     84 H191       17.5720    0.9210   12.9860 h1        1 DGG      0.073700
     85 H221       19.5350   -2.3340   15.3180 hc        1 DGG      0.112200
     86 H222       18.0800   -3.1810   14.6320 hc        1 DGG      0.112200
     87 H231       18.0730   -1.5630   17.2820 hc        1 DGG      0.044200
     88 H232       16.6970   -2.5240   16.6170 hc        1 DGG      0.044200
     89 H241       19.4690   -3.6580   17.4160 hc        1 DGG      0.046200
     90 H242       18.0950   -4.6200   16.7470 hc        1 DGG      0.046200
     91 H251       16.6560   -3.9130   18.6950 hc        1 DGG      0.036200
     92 H252       18.0360   -2.9600   19.3630 hc        1 DGG      0.036200
     93 H261       18.0340   -6.0120   18.8260 hc        1 DGG      0.041700
     94 H262       19.4240   -5.0630   19.4780 hc        1 DGG      0.041700
     95 H271       18.0240   -4.3490   21.4420 hc        1 DGG      0.038200
     96 H272       16.6240   -5.2820   20.7880 hc        1 DGG      0.038200
     97 H281       19.3880   -6.4780   21.5160 hc        1 DGG      0.044200
     98 H282       17.9600   -7.4000   20.9050 hc        1 DGG      0.044200
     99 H291       16.6550   -6.3700   22.9530 hc        1 DGG      0.072700
    100 H301       18.0090   -5.9200   24.9860 hc        1 DGG      0.070700
    101 H391       18.9820   -8.4580   23.3770 hc        1 DGG      0.066200
    102 H392       17.4480   -8.3360   24.3680 hc        1 DGG      0.066200
    103 H311       20.4820   -6.2800   25.0400 hc        1 DGG      0.041200
    104 H312       20.5230   -6.4450   23.2450 hc        1 DGG      0.041200
    105 H321       19.6160   -4.1120   23.0030 hc        1 DGG      0.043200
    106 H322       19.5640   -3.9410   24.8010 hc        1 DGG      0.043200
    107 H331       22.0480   -4.3400   24.9130 hc        1 DGG      0.037700
    108 H332       22.1020   -4.5190   23.1180 hc        1 DGG      0.037700
    109 H341       21.2000   -2.1850   22.8540 hc        1 DGG      0.041200
    110 H342       21.1400   -2.0030   24.6490 hc        1 DGG      0.041200
    111 H351       23.6220   -2.4040   24.7730 hc        1 DGG      0.037200
    112 H352       23.6810   -2.5910   22.9780 hc        1 DGG      0.037200
    113 H361       22.7500   -0.0550   24.4980 hc        1 DGG      0.033033
    114 H362       22.8150   -0.2470   22.6990 hc        1 DGG      0.033033
    115 H363       24.3450   -0.2870   23.6690 hc        1 DGG      0.033033
    116 H181       19.9870    0.5730   13.8370 h1        1 DGG      0.042200
    117 H182       19.7790    1.6730   12.3660 h1        1 DGG      0.042200
    118 H401       19.9470   -3.1420   10.9360 h1        1 DGG      0.045200
    119 H402       19.7240   -2.6580   12.7020 h1        1 DGG      0.045200
    120 H411       21.1140   -4.5880   13.4410 h1        1 DGG      0.055700
    121 H421       22.3590   -4.4280   11.3190 ho        1 DGG      0.439000
    122 H431       19.1350   -5.4370   11.1790 h1        1 DGG      0.041700
    123 H432       18.6970   -5.0910   12.9300 h1        1 DGG      0.041700
    124 H441       20.5930   -7.0450   12.2090 ho        1 DGG      0.414000
@<TRIPOS>BOND
     1    1    2 1   
     2    1   51 1   
     3    1   52 1   
     4    1   53 1   
     5    2    3 1   
     6    2   54 1   
     7    2   55 1   
     8    3    4 1   
     9    3   56 1   
    10    3   57 1   
    11    4    5 1   
    12    4   58 1   
    13    4   59 1   
    14    5    6 1   
    15    5   60 1   
    16    5   61 1   
    17    6    7 1   
    18    6   62 1   
    19    6   63 1   
    20    7    8 1   
    21    7   64 1   
    22    7   65 1   
    23    8    9 1   
    24    8   66 1   
    25    8   67 1   
    26    9   10 1   
    27    9   68 1   
    28    9   69 1   
    29   10   11 1   
    30   10   70 1   
    31   10   71 1   
    32   11   12 1   
    33   11   72 1   
    34   11   73 1   
    35   12   13 1   
    36   12   74 1   
    37   12   75 1   
    38   13   14 1   
    39   13   76 1   
    40   13   77 1   
    41   14   15 1   
    42   14   78 1   
    43   14   79 1   
    44   15   16 1   
    45   15   80 1   
    46   15   81 1   
    47   16   17 2   
    48   16   18 1   
    49   18   19 1   
    50   19   20 1   
    51   19   82 1   
    52   19   83 1   
    53   20   21 1   
    54   20   40 1   
    55   20   84 1   
    56   21   22 1   
    57   22   23 2   
    58   22   24 1   
    59   24   25 1   
    60   24   85 1   
    61   24   86 1   
    62   25   26 1   
    63   25   87 1   
    64   25   88 1   
    65   26   27 1   
    66   26   89 1   
    67   26   90 1   
    68   27   28 1   
    69   27   91 1   
    70   27   92 1   
    71   28   29 1   
    72   28   93 1   
    73   28   94 1   
    74   29   30 1   
    75   29   95 1   
    76   29   96 1   
    77   30   31 1   
    78   30   97 1   
    79   30   98 1   
    80   31   32 1   
    81   31   33 1   
    82   31   99 1   
    83   32   33 1   
    84   32   34 1   
    85   32  100 1   
    86   33  101 1   
    87   33  102 1   
    88   34   35 1   
    89   34  103 1   
    90   34  104 1   
    91   35   36 1   
    92   35  105 1   
    93   35  106 1   
    94   36   37 1   
    95   36  107 1   
    96   36  108 1   
    97   37   38 1   
    98   37  109 1   
    99   37  110 1   
   100   38   39 1   
   101   38  111 1   
   102   38  112 1   
   103   39  113 1   
   104   39  114 1   
   105   39  115 1   
   106   40   43 1   
   107   40  116 1   
   108   40  117 1   
   109   41   42 1   
   110   41   43 1   
   111   41   44 1   
   112   41   45 1   
   113   45   46 1   
   114   46   47 1   
   115   46  118 1   
   116   46  119 1   
   117   47   48 1   
   118   47   49 1   
   119   47  120 1   
   120   48  121 1   
   121   49   50 1   
   122   49  122 1   
   123   49  123 1   
   124   50  124 1   
@<TRIPOS>SUBSTRUCTURE
     1 DGG         1 TEMP              0 ****  ****    0 ROOT
