@<TRIPOS>MOLECULE
DGJ
   24    24     1     0     0
SMALL
bcc


@<TRIPOS>ATOM
      1 C1           0.0000     0.0000     0.0000 c3         1 DGJ       0.122800
      2 C2           1.5310     0.0000     0.0000 c3         1 DGJ       0.177100
      3 O2           2.0080    -1.1670    -0.6730 oh         1 DGJ      -0.588800
      4 C3           2.0370     0.0000     1.4450 c3         1 DGJ       0.160100
      5 O3           3.4640     0.0560     1.4510 oh         1 DGJ      -0.574800
      6 C4           1.4710     1.2210     2.1750 c3         1 DGJ       0.180100
      7 O4           1.9460     2.4140     1.5480 oh         1 DGJ      -0.558800
      8 C5          -0.0570     1.1850     2.1130 c3         1 DGJ       0.101500
      9 N5          -0.4900     1.1880     0.7090 n7         1 DGJ      -0.558200
     10 C6          -0.6260     2.4140     2.8240 c3         1 DGJ       0.223400
     11 O6          -2.0520     2.3220     2.8680 oh         1 DGJ      -0.600800
     12 H1          -0.3600     0.0170    -1.0220 h1         1 DGJ       0.012200
     13 H1A         -0.3600    -0.8910     0.5000 h1         1 DGJ       0.012200
     14 H2           1.8900     0.8880    -0.5070 h1         1 DGJ       0.037700
     15 HO2          2.3250    -0.9290    -1.5290 ho         1 DGJ       0.394000
     16 H3           1.7040    -0.9030     1.9420 h1         1 DGJ       0.010700
     17 HO3          3.8030    -0.6440     1.9840 ho         1 DGJ       0.388000
     18 H4           1.7890     1.2000     3.2110 h1         1 DGJ       0.000700
     19 HO4          2.5880     2.8260     2.1020 ho         1 DGJ       0.386000
     20 H5          -0.4150     0.2840     2.5970 h1         1 DGJ       0.016700
     21 HN5         -1.4900     1.2120     0.6690 hn         1 DGJ       0.268800
     22 H6          -0.2370     2.4600     3.8330 h1         1 DGJ      -0.001800
     23 H6A         -0.3390     3.3090     2.2840 h1         1 DGJ      -0.001800
     24 HO6         -2.3930     2.9900     3.4400 ho         1 DGJ       0.394000
@<TRIPOS>BOND
     1     1     2 1   
     2     1     9 1   
     3     1    12 1   
     4     1    13 1   
     5     2     3 1   
     6     2     4 1   
     7     2    14 1   
     8     3    15 1   
     9     4     5 1   
    10     4     6 1   
    11     4    16 1   
    12     5    17 1   
    13     6     7 1   
    14     6     8 1   
    15     6    18 1   
    16     7    19 1   
    17     8     9 1   
    18     8    10 1   
    19     8    20 1   
    20     9    21 1   
    21    10    11 1   
    22    10    22 1   
    23    10    23 1   
    24    11    24 1   
@<TRIPOS>SUBSTRUCTURE
     1 DGJ         1 TEMP              0 ****  ****    0 ROOT
