@<TRIPOS>MOLECULE
molecule
   20    20     1     0     0
SMALL
bcc


@<TRIPOS>ATOM
      1 C1           0.0000     0.0000     0.0000 c2         1 DGO       0.062100
      2 C2           2.0150     0.0000     1.2680 c3         1 DGO       0.152100
      3 C3           1.3660    -1.0760     2.1490 c3         1 DGO       0.112100
      4 C5           3.4990    -0.3170     1.0730 c3         1 DGO       0.150400
      5 C4          -0.1030    -0.6910     2.3660 c3         1 DGO       0.177300
      6 O3           4.1160     0.7330     0.3270 oh         1 DGO      -0.601800
      7 O            1.3510     0.0000     0.0000 os         1 DGO      -0.316900
      8 O2           2.0360    -1.1370     3.4090 oh         1 DGO      -0.604800
      9 O1          -0.8120    -1.8040     2.9130 oh         1 DGO      -0.601800
     10 C           -0.7190    -0.3070     1.0470 c2         1 DGO      -0.331200
     11 H1          -0.5200     0.1340    -0.9410 h4         1 DGO       0.168000
     12 H2           1.9020     0.9700     1.7370 h1         1 DGO       0.073700
     13 H3           1.4210    -2.0370     1.6520 h1         1 DGO       0.063700
     14 H4           3.6010    -1.2510     0.5350 h1         1 DGO       0.039200
     15 H5           3.9790    -0.4030     2.0400 h1         1 DGO       0.039200
     16 H6          -0.1580     0.1500     3.0470 h1         1 DGO       0.050700
     17 H7           5.0450     0.5790     0.2750 ho         1 DGO       0.404000
     18 H8           2.0870    -2.0340     3.6950 ho         1 DGO       0.415000
     19 H9          -1.4520    -1.4950     3.5320 ho         1 DGO       0.407000
     20 H10         -1.7980    -0.2840     0.9630 ha         1 DGO       0.142000
@<TRIPOS>BOND
     1     8     3 1
     2     6     4 1
     3     4     2 1
     4     3     2 1
     5     3     5 1
     6     9     5 1
     7     2     7 1
     8     5    10 1
     9     7     1 1
    10    10     1 2
    11     1    11 1
    12     2    12 1
    13     3    13 1
    14     4    14 1
    15     4    15 1
    16     5    16 1
    17     6    17 1
    18     8    18 1
    19     9    19 1
    20    10    20 1
@<TRIPOS>SUBSTRUCTURE
     1 DGO         1 TEMP              0 ****  ****    0 ROOT
