@<TRIPOS>MOLECULE
molecule
   25    25     1     0     0
SMALL
bcc


@<TRIPOS>ATOM
      1 OAA          0.0000     0.0000     0.0000 o          1 DGR      -0.826800
      2 CAN          1.3480     0.0000     0.0000 c          1 DGR       0.859800
      3 OAD          1.9550     0.0000     1.0520 o          1 DGR      -0.826800
      4 CAE          2.0860    -0.0010    -1.2780 ce         1 DGR      -0.068200
      5 CAF          3.4280    -0.0010    -1.2780 cf         1 DGR      -0.297200
      6 CAO          4.1660    -0.0020    -2.5570 c          1 DGR       0.667300
      7 OAB          3.5580    -0.0020    -3.6100 o          1 DGR      -0.651100
      8 NAL          5.5140    -0.0020    -2.5570 ns         1 DGR      -0.443500
      9 NAM          6.2140    -0.0040    -3.7700 ns         1 DGR      -0.417500
     10 CAP          7.5620    -0.0040    -3.7710 c          1 DGR       0.664700
     11 OAC          8.1690    -0.0030    -2.7180 o          1 DGR      -0.625100
     12 CAQ          8.3010    -0.0050    -5.0510 ca         1 DGR      -0.257900
     13 CAI          9.7010    -0.0050    -5.0650 ca         1 DGR      -0.036000
     14 CAG         10.3450    -0.0050    -6.2900 ca         1 DGR      -0.270300
     15 CAH          9.5920    -0.0060    -7.4500 ca         1 DGR       0.431200
     16 NAK          8.2730    -0.0050    -7.4060 nb         1 DGR      -0.697000
     17 CAJ          7.6150    -0.0110    -6.2660 ca         1 DGR       0.442200
     18 HAE          1.5440    -0.0020    -2.2160 ha         1 DGR       0.130000
     19 HAF          3.9700    -0.0000    -0.3400 ha         1 DGR       0.150000
     20 HAL          6.0150    -0.0020    -1.6910 hn         1 DGR       0.363500
     21 HAM          5.7130    -0.0040    -4.6360 hn         1 DGR       0.357500
     22 HAI         10.2660    -0.0040    -4.1410 ha         1 DGR       0.163000
     23 HAJ          6.5320    -0.0100    -6.2720 h4         1 DGR       0.030100
     24 HAG         11.4270    -0.0050    -6.3400 ha         1 DGR       0.138000
     25 HAH         10.0930    -0.0040    -8.4100 h4         1 DGR       0.019100
@<TRIPOS>BOND
     1     1     2 1
     2     2     3 1
     3     2     4 1
     4     4     5 2
     5     5     6 1
     6     6     7 2
     7     6     8 1
     8     8     9 1
     9     9    10 1
    10    10    11 2
    11    10    12 1
    12    12    13 ar
    13    12    17 ar
    14    13    14 ar
    15    14    15 ar
    16    15    16 ar
    17    16    17 ar
    18     4    18 1
    19     5    19 1
    20     8    20 1
    21     9    21 1
    22    13    22 1
    23    17    23 1
    24    14    24 1
    25    15    25 1
@<TRIPOS>SUBSTRUCTURE
     1 DGR         1 TEMP              0 ****  ****    0 ROOT
