@<TRIPOS>MOLECULE
DGR
   25    27     1     0     0
SMALL
bcc


@<TRIPOS>ATOM
      1 OAA          0.0000     0.0000     0.0000 o          1 DGR      -0.584500
      2 CAN          1.3480     0.0000     0.0000 c3         1 DGR       0.491000
      3 OAD          1.9550     0.0000     1.0520 o          1 DGR      -0.584500
      4 CAE          2.0860    -0.0010    -1.2780 c2         1 DGR      -0.109000
      5 CAF          3.4280    -0.0010    -1.2780 c2         1 DGR      -0.187000
      6 CAO          4.1660    -0.0020    -2.5570 c3         1 DGR       0.341000
      7 OAB          3.5580    -0.0020    -3.6100 o          1 DGR      -0.506000
      8 NAL          5.5140    -0.0020    -2.5570 n7         1 DGR      -0.060000
      9 NAM          6.2140    -0.0040    -3.7700 ns         1 DGR       0.047000
     10 CAP          7.5620    -0.0040    -3.7710 c2         1 DGR       0.255000
     11 OAC          8.1690    -0.0030    -2.7180 o          1 DGR      -0.433000
     12 CAQ          8.3010    -0.0050    -5.0510 c2         1 DGR      -0.176000
     13 CAI          9.7010    -0.0050    -5.0650 c2         1 DGR      -0.007000
     14 CAG         10.3450    -0.0050    -6.2900 c2         1 DGR      -0.176000
     15 CAH          9.5920    -0.0060    -7.4500 c2         1 DGR      -0.052000
     16 NAK          8.2730    -0.0050    -7.4060 n2         1 DGR      -0.065000
     17 CAJ          7.6150    -0.0110    -6.2660 c2         1 DGR      -0.044000
     18 HAE          1.9400     0.8740    -0.6560 DU         1 DGR       0.096000
     19 HAF          3.5750    -0.8770    -1.8990 DU         1 DGR       0.008000
     20 HAL          6.0150     0.0150    -1.6910 hn         1 DGR       0.142000
     21 HAM          5.7130    -0.0020    -4.6360 hn         1 DGR       0.126000
     22 HAI         10.2660    -0.0040    -4.1410 ha         1 DGR       0.131000
     23 HAJ          6.5320    -0.0100    -6.2720 h4         1 DGR       0.126000
     24 HAG         11.4270    -0.0050    -6.3400 ha         1 DGR       0.111000
     25 HAH         10.0930    -0.0040    -8.4100 h4         1 DGR       0.110000
@<TRIPOS>BOND
     1     1     2 1   
     2     2     3 1   
     3     2     4 1   
     4     2    18 1   
     5     4     5 1   
     6     4    18 1   
     7     5     6 1   
     8     5    19 1   
     9     6     7 1   
    10     6     8 1   
    11     6    19 1   
    12     8     9 1   
    13     8    20 1   
    14     9    10 1   
    15     9    21 1   
    16    10    11 1   
    17    10    12 1   
    18    12    13 1   
    19    12    17 1   
    20    13    14 1   
    21    13    22 1   
    22    14    15 1   
    23    14    24 1   
    24    15    16 1   
    25    15    25 1   
    26    16    17 1   
    27    17    23 1   
@<TRIPOS>SUBSTRUCTURE
     1 DGR         1 TEMP              0 ****  ****    0 ROOT
