@<TRIPOS>MOLECULE
molecule
   44    46     1     0     0
SMALL
bcc


@<TRIPOS>ATOM
      1 PG           0.0000     0.0000     0.0000 p5         1 DGT       1.298900
      2 O1G          1.6110     0.0000     0.0000 o          1 DGT      -0.627833
      3 O2G         -0.5370     0.0000     1.5180 o          1 DGT      -0.627833
      4 O3G         -0.4930     1.2070    -0.6980 o          1 DGT      -0.627833
      5 O3B         -0.5350    -1.3160    -0.7590 os         1 DGT      -0.717800
      6 PB          -0.6250    -1.7570    -2.3040 p5         1 DGT       1.561800
      7 O1B         -1.8290    -0.9630    -3.0200 o          1 DGT      -0.703500
      8 O2B          0.6490    -1.4350    -2.9840 o          1 DGT      -0.703500
      9 O3A         -0.8970    -3.3410    -2.3960 os         1 DGT      -0.722800
     10 PA          -0.6950    -4.4460    -3.5490 p5         1 DGT       1.440800
     11 O1A         -1.8460    -4.2760    -4.6620 o          1 DGT      -0.838500
     12 O2A          0.6320    -4.2640    -4.1790 o          1 DGT      -0.838500
     13 O5'         -0.7850    -5.9170    -2.9040 os         1 DGT      -0.598200
     14 C5'         -0.5430    -7.1120    -3.6510 c3         1 DGT       0.241400
     15 C4'         -0.7120    -8.3280    -2.7380 c3         1 DGT       0.134100
     16 O4'         -2.0960    -8.4910    -2.3600 os         1 DGT      -0.377600
     17 C3'         -0.3870    -9.6350    -3.5040 c3         1 DGT       0.100100
     18 O3'          1.0130    -9.9180    -3.4580 oh         1 DGT      -0.600800
     19 C2'         -1.1910   -10.6880    -2.7060 c3         1 DGT      -0.158400
     20 C1'         -2.2640    -9.8630    -1.9630 c3         1 DGT       0.265800
     21 N9          -3.6000   -10.3300    -2.3390 na         1 DGT      -0.238900
     22 C8          -4.3930    -9.8070    -3.3190 cc         1 DGT       0.387400
     23 N7          -5.5130   -10.4670    -3.3790 nd         1 DGT      -0.644000
     24 C5          -5.5060   -11.4490    -2.4450 cd         1 DGT       0.078800
     25 C6          -6.4290   -12.4500    -2.0620 c          1 DGT       0.677000
     26 O6          -7.5060   -12.5550    -2.6230 o          1 DGT      -0.720500
     27 N1          -6.0870   -13.2880    -1.0590 ns         1 DGT      -0.479400
     28 C2          -4.8790   -13.1630    -0.4380 cd         1 DGT       0.102800
     29 N2          -4.5580   -14.0270     0.5770 nz         1 DGT      -0.617600
     30 N3          -4.0140   -12.2370    -0.7850 nc         1 DGT      -0.731100
     31 C4          -4.2800   -11.3750    -1.7730 cc         1 DGT       0.140800
     32 H5'         -1.2490    -7.1740    -4.4700 h1         1 DGT       0.035700
     33 H5'A         0.4660    -7.0930    -4.0440 h1         1 DGT       0.035700
     34 H4'         -0.0880    -8.2400    -1.8580 h1         1 DGT       0.067700
     35 H3'         -0.7410    -9.5770    -4.5260 h1         1 DGT       0.050700
     36 HO3'         1.2750   -10.3420    -4.2590 ho         1 DGT       0.387000
     37 H2'         -1.6590   -11.3960    -3.3790 hc         1 DGT       0.055700
     38 H2'A        -0.5480   -11.1970    -1.9970 hc         1 DGT       0.055700
     39 H1'         -2.1220    -9.9550    -0.8930 h2         1 DGT       0.064700
     40 H8          -4.1300    -8.9680    -3.9520 h5         1 DGT       0.074100
     41 HN2         -4.5750   -14.9670     0.2330 hn         1 DGT       0.349467
     42 HN2A        -5.2230   -13.9320     1.3200 hn         1 DGT       0.349467
     43 H16         -6.7230   -14.0040    -0.7690 hn         1 DGT       0.271500
     44 H23         -3.6430   -13.8140     0.9200 hn         1 DGT       0.349467
@<TRIPOS>BOND
     1     1     2 1
     2     1     3 1
     3     4     1 1
     4     5     1 1
     5     6     5 1
     6     6     7 1
     7     6     9 1
     8     8     6 1
     9    10     9 1
    10    10    11 1
    11    12    10 1
    12    13    10 1
    13    13    14 1
    14    14    32 1
    15    14    33 1
    16    15    14 1
    17    15    34 1
    18    16    15 1
    19    17    15 1
    20    17    18 1
    21    17    35 1
    22    18    36 1
    23    19    17 1
    24    19    20 1
    25    19    37 1
    26    19    38 1
    27    20    16 1
    28    20    39 1
    29    21    20 1
    30    21    31 1
    31    22    21 1
    32    22    40 1
    33    23    22 2
    34    23    24 1
    35    24    25 1
    36    24    31 2
    37    25    27 1
    38    26    25 2
    39    27    28 1
    40    28    30 2
    41    28    29 1
    42    29    41 1
    43    29    42 1
    44    31    30 1
    45    27    43 1
    46    44    29 1
@<TRIPOS>SUBSTRUCTURE
     1 DGT         1 TEMP              0 ****  ****    0 ROOT
