@<TRIPOS>MOLECULE
molecule
   22    21     1     0     0
SMALL
bcc


@<TRIPOS>ATOM
      1 OAA          0.0000     0.0000     0.0000 o          1 DGU      -0.520100
      2 OAB          1.0330    -0.0010     2.3910 oh         1 DGU      -0.564800
      3 OAC          5.3170     2.5650     1.7560 oh         1 DGU      -0.616800
      4 CAE          1.2080     0.0000     0.0000 c          1 DGU       0.537900
      5 CAF          1.9620     0.0000     1.3040 c3         1 DGU       0.014100
      6 CAG          2.8400     1.2500     1.3870 c3         1 DGU       0.150100
      7 CAH          3.5090     1.3140     2.7600 c3         1 DGU       0.177100
      8 CAI          4.3880     2.5630     2.8420 c3         1 DGU       0.024100
      9 CAJ          5.1420     2.5630     4.1470 c          1 DGU       0.870600
     10 OAK          2.0330     2.4140     1.1940 oh         1 DGU      -0.585800
     11 OAL          4.3160     0.1500     2.9520 oh         1 DGU      -0.605800
     12 OAM          6.3460     2.4730     4.1490 o          1 DGU      -0.838800
     13 HAE          1.7490    -0.0380    -0.9380 h4         1 DGU      -0.019800
     14 HAF          2.5850    -0.8840     1.3610 h1         1 DGU       0.064700
     15 HAG          3.6010     1.2070     0.6170 h1         1 DGU       0.060700
     16 HAH          2.7480     1.3570     3.5300 h1         1 DGU       0.082700
     17 HAI          3.7650     3.4470     2.7860 h1         1 DGU       0.034700
     18 HOAK         2.2010     2.7750     0.3400 ho         1 DGU       0.388000
     19 HOAL         4.1270    -0.2280     3.7950 ho         1 DGU       0.408000
     20 HOAB         0.6960    -0.8720     2.5160 ho         1 DGU       0.391000
     21 OAD          4.4740     2.6640     5.3070 o          1 DGU      -0.838800
     22 HOAC         5.6580     3.4350     1.6350 ho         1 DGU       0.388000
@<TRIPOS>BOND
     1     1     4 2
     2     2     5 1
     3     2    20 1
     4     8     3 1
     5     3    22 1
     6     9    21 1
     7     4     5 1
     8     4    13 1
     9     5     6 1
    10     5    14 1
    11     6    10 1
    12     6     7 1
    13     6    15 1
    14    11     7 1
    15     7     8 1
    16     7    16 1
    17     8     9 1
    18     8    17 1
    19    12     9 1
    20    10    18 1
    21    11    19 1
@<TRIPOS>SUBSTRUCTURE
     1 DGU         1 TEMP              0 ****  ****    0 ROOT
