@<TRIPOS>MOLECULE
DGU
   22    19     1     0     0
SMALL
bcc


@<TRIPOS>ATOM
      1 OAA        -1.0550   -0.3200    0.4660 o         1 DGU     -0.313000
      2 OAB         0.9920   -1.7850    1.6100 oh        1 DGU     -0.332000
      3 OAC         7.2310    4.5960    2.3160 oh        1 DGU     -0.204000
      4 CAE         0.0650   -0.2710   -0.0480 c2        1 DGU      0.159000
      5 CAF         1.2860   -0.9010    0.5460 c3        1 DGU     -0.142000
      6 CAG         3.1300    1.2080    1.8920 c1        1 DGU     -0.091000
      7 CAH         3.2170    0.8750    3.3390 c3        1 DGU     -0.122000
      8 CAI         5.9710    4.7790    2.6460 c1        1 DGU     -0.117000
      9 CAJ         5.5480    4.0460    3.8970 c2        1 DGU      0.298000
     10 OAK         3.6470    2.2810    1.4140 oh        1 DGU     -0.177000
     11 OAL         2.4090   -0.2490    3.6550 oh        1 DGU     -0.341000
     12 OAM         5.7460    4.5770    5.0200 o         1 DGU     -0.571500
     13 HAE         1.9950   -0.0720    0.9010 h1        1 DGU      0.151000
     14 HAF         0.2420    0.2850   -0.9970 h4        1 DGU      0.076000
     15 HAG         1.8050   -1.5350   -0.2220 h1        1 DGU      0.151000
     16 HAH         2.8460    1.7100    3.9980 h1        1 DGU      0.137000
     17 HAI         4.2900    0.6790    3.6300 h1        1 DGU      0.137000
     18 HOAK        4.1110    2.8820    2.0630 ho        1 DGU      0.251000
     19 HOAL        2.6150   -0.9360    3.0070 ho        1 DGU      0.199000
     20 HOAB        0.5430   -1.2630    2.2900 ho        1 DGU      0.219000
     21 OAD         4.9170    2.9480    3.7340 o         1 DGU     -0.571500
     22 HOAC        7.3950    5.1070    1.5020 ho        1 DGU      0.204000
@<TRIPOS>BOND
     1    1    4 1   
     2    2    5 1   
     3    2   20 1   
     4    3    8 1   
     5    3   22 1   
     6    4    5 1   
     7    4   14 1   
     8    5   13 1   
     9    5   15 1   
    10    6    7 1   
    11    6   10 1   
    12    7   11 1   
    13    7   16 1   
    14    7   17 1   
    15    8    9 1   
    16    9   12 1   
    17    9   21 1   
    18   10   18 1   
    19   11   19 1   
@<TRIPOS>SUBSTRUCTURE
     1 DGU         1 TEMP              0 ****  ****    0 ROOT
