@<TRIPOS>MOLECULE
molecule
   65    68     1     0     0
SMALL
bcc


@<TRIPOS>ATOM
      1 ClAY         0.0000     0.0000     0.0000 cl         1 DGV      -0.090400
      2 CBA          1.7360     0.0000     0.0000 ca         1 DGV       0.034900
      3 CBB          2.4280     0.0000     1.1980 ca         1 DGV      -0.117000
      4 CBF          3.8110    -0.0010     1.1980 ca         1 DGV      -0.117000
      5 CBE          4.5020    -0.0010     0.0010 ca         1 DGV      -0.117000
      6 CBD          3.8110    -0.0010    -1.1980 ca         1 DGV       0.034900
      7 ClBC         4.6800    -0.0010    -2.7010 cl         1 DGV      -0.090400
      8 CAZ          2.4280    -0.0060    -1.1980 ca         1 DGV      -0.060300
      9 CAX          1.6740    -0.0050    -2.5040 c3         1 DGV      -0.032400
     10 CAU          0.7860     1.2390    -2.5810 c3         1 DGV      -0.084900
     11 CAT         -0.0210     1.2030    -3.8800 c3         1 DGV       0.166300
     12 CAW          0.7970    -1.2580    -2.5880 c3         1 DGV      -0.084900
     13 CAV         -0.0120    -1.2200    -3.8870 c3         1 DGV       0.166300
     14 NAS         -0.8460    -0.0110    -3.9120 n3         1 DGV      -0.729600
     15 CAR         -1.7390    -0.0110    -5.0790 c3         1 DGV       0.166800
     16 CAQ         -2.7560     1.1230    -4.9430 c3         1 DGV      -0.102400
     17 CAP         -3.6850     1.1230    -6.1590 c3         1 DGV       0.107000
     18 NAO         -4.6600     2.2090    -6.0280 ns         1 DGV      -0.582900
     19 C           -5.5850     2.4020    -6.9890 c          1 DGV       0.643100
     20 O           -5.6120     1.6770    -7.9610 o          1 DGV      -0.617100
     21 CD          -8.5200     3.6930    -8.2640 c3         1 DGV       0.151800
     22 CG          -7.7470     5.0320    -8.3500 c3         1 DGV      -0.090400
     23 CB          -6.3190     4.5970    -7.9260 c3         1 DGV      -0.091400
     24 CA          -6.5880     3.5190    -6.8550 c3         1 DGV       0.089500
     25 N           -7.9490     3.0020    -7.0880 n3         1 DGV      -0.692600
     26 CAG         -7.9330     1.5470    -7.2890 c3         1 DGV       0.189100
     27 CAF         -9.3270     1.0000    -7.1210 ca         1 DGV      -0.076300
     28 CAE         -9.7650     0.5960    -5.8740 ca         1 DGV      -0.117000
     29 CAD        -11.0440     0.0950    -5.7210 ca         1 DGV      -0.131000
     30 CAA        -11.8850    -0.0010    -6.8140 ca         1 DGV      -0.130000
     31 CAB        -11.4470     0.4030    -8.0610 ca         1 DGV      -0.131000
     32 CAC        -10.1690     0.9080    -8.2140 ca         1 DGV      -0.117000
     33 H1           1.8870     0.0000     2.1360 ha         1 DGV       0.147500
     34 H2           4.3520    -0.0010     2.1360 ha         1 DGV       0.143000
     35 H3           5.5850    -0.0010     0.0020 ha         1 DGV       0.147500
     36 H4           2.3740    -0.0000    -3.3310 hc         1 DGV       0.070700
     37 H5           0.1080     1.2520    -1.7360 hc         1 DGV       0.060450
     38 H6           1.4070     2.1270    -2.5670 hc         1 DGV       0.060450
     39 H7           0.6570     1.2000    -4.7250 h1         1 DGV       0.034200
     40 H8          -0.6620     2.0750    -3.9290 h1         1 DGV       0.034200
     41 H9           0.1200    -1.2810    -1.7420 hc         1 DGV       0.060450
     42 H10          1.4250    -2.1400    -2.5790 hc         1 DGV       0.060450
     43 H11          0.6660    -1.2070    -4.7320 h1         1 DGV       0.034200
     44 H12         -0.6470    -2.0960    -3.9410 h1         1 DGV       0.034200
     45 H14         -2.2600    -0.9590    -5.1350 h1         1 DGV       0.036700
     46 H15         -1.1550     0.1340    -5.9800 h1         1 DGV       0.036700
     47 H16         -3.3400     0.9770    -4.0420 hc         1 DGV       0.053700
     48 H17         -2.2350     2.0710    -4.8860 hc         1 DGV       0.053700
     49 H18         -4.2060     0.1750    -6.2160 h1         1 DGV       0.053700
     50 H19         -3.1010     1.2690    -7.0600 h1         1 DGV       0.053700
     51 H20         -4.6120     2.8330    -5.2470 hn         1 DGV       0.316500
     52 H22         -9.5770     3.8790    -8.1150 h1         1 DGV       0.051200
     53 H23         -7.7480     5.4140    -9.3640 hc         1 DGV       0.054200
     54 H24         -8.1520     5.7570    -7.6540 hc         1 DGV       0.054200
     55 H25         -5.7830     4.1740    -8.7670 hc         1 DGV       0.057700
     56 H26         -5.7770     5.4320    -7.4980 hc         1 DGV       0.057700
     57 H27         -6.5270     3.9600    -5.8680 h1         1 DGV       0.068700
     58 H29         -7.5750     1.3240    -8.2870 h1         1 DGV       0.063700
     59 H30         -7.2750     1.0890    -6.5590 h1         1 DGV       0.063700
     60 H31         -9.1070     0.6710    -5.0180 ha         1 DGV       0.129500
     61 H32        -11.3880    -0.2220    -4.7440 ha         1 DGV       0.127000
     62 H33        -12.8870    -0.3960    -6.6940 ha         1 DGV       0.126000
     63 H34        -12.1060     0.3300    -8.9180 ha         1 DGV       0.127000
     64 H35         -9.8260     1.2250    -9.1910 ha         1 DGV       0.129500
     65 H21         -8.3570     3.1070    -9.1600 h1         1 DGV       0.051200
@<TRIPOS>BOND
     1    22    23 1
     2    22    21 1
     3    23    24 1
     4    21    25 1
     5    24    25 1
     6    24    19 1
     7    25    26 1
     8    26    27 1
     9    19    18 1
    10    19    20 2
    11    18    17 1
    12    27    32 ar
    13    27    28 ar
    14    17    16 1
    15    32    31 ar
    16    28    29 ar
    17    16    15 1
    18    31    30 ar
    19    29    30 ar
    20    15    14 1
    21    14    13 1
    22    14    11 1
    23    13    12 1
    24    11    10 1
    25    12     9 1
    26    10     9 1
    27     9     8 1
    28     7     6 1
    29     8     6 ar
    30     8     2 ar
    31     6     5 ar
    32     1     2 1
    33     2     3 ar
    34     5     4 ar
    35     3     4 ar
    36     3    33 1
    37     4    34 1
    38     5    35 1
    39     9    36 1
    40    10    37 1
    41    10    38 1
    42    11    39 1
    43    11    40 1
    44    12    41 1
    45    12    42 1
    46    13    43 1
    47    13    44 1
    48    15    45 1
    49    15    46 1
    50    16    47 1
    51    16    48 1
    52    17    49 1
    53    17    50 1
    54    18    51 1
    55    21    65 1
    56    21    52 1
    57    22    53 1
    58    22    54 1
    59    23    55 1
    60    23    56 1
    61    24    57 1
    62    26    58 1
    63    26    59 1
    64    28    60 1
    65    29    61 1
    66    30    62 1
    67    31    63 1
    68    32    64 1
@<TRIPOS>SUBSTRUCTURE
     1 DGV         1 TEMP              0 ****  ****    0 ROOT
