@<TRIPOS>MOLECULE
DGV
   65    68     1     0     0
SMALL
bcc


@<TRIPOS>ATOM
      1 ClAY         0.0000     0.0000     0.0000 cl         1 DGV      -0.000400
      2 CBA          1.7360     0.0000     0.0000 ca         1 DGV      -0.030100
      3 CBB          2.4280     0.0000     1.1980 ca         1 DGV      -0.094000
      4 CBF          3.8110    -0.0010     1.1980 ca         1 DGV      -0.086000
      5 CBE          4.5020    -0.0010     0.0010 ca         1 DGV      -0.094000
      6 CBD          3.8110    -0.0010    -1.1980 ca         1 DGV      -0.030100
      7 ClBC         4.6800    -0.0010    -2.7010 cl         1 DGV      -0.000400
      8 CAZ          2.4280    -0.0060    -1.1980 ca         1 DGV      -0.069300
      9 CAX          1.6740    -0.0050    -2.5040 c3         1 DGV      -0.004400
     10 CAU          0.7860     1.2390    -2.5810 c3         1 DGV      -0.051900
     11 CAT         -0.0210     1.2030    -3.8800 c3         1 DGV       0.157300
     12 CAW          0.7970    -1.2580    -2.5880 c3         1 DGV      -0.051900
     13 CAV         -0.0120    -1.2200    -3.8870 c3         1 DGV       0.157300
     14 NAS         -0.8460    -0.0110    -3.9120 n3         1 DGV      -0.541600
     15 CAR         -1.7390    -0.0110    -5.0790 c3         1 DGV       0.159800
     16 CAQ         -2.7560     1.1230    -4.9430 c3         1 DGV      -0.052400
     17 CAP         -3.6850     1.1230    -6.1590 c3         1 DGV       0.047000
     18 NAO         -4.6600     2.2090    -6.0280 ns         1 DGV      -0.189900
     19 C           -5.5850     2.4020    -6.9890 c          1 DGV       0.559100
     20 O           -5.6120     1.6770    -7.9610 o          1 DGV      -0.653100
     21 CD          -8.5200     3.6930    -8.2640 c3         1 DGV       0.147800
     22 CG          -7.7470     5.0320    -8.3500 c3         1 DGV      -0.029400
     23 CB          -6.3190     4.5970    -7.9260 c3         1 DGV      -0.032400
     24 CA          -6.5880     3.5190    -6.8550 c3         1 DGV       0.061500
     25 N           -7.9490     3.0020    -7.0880 n3         1 DGV      -0.522600
     26 CAG         -7.9330     1.5470    -7.2890 c3         1 DGV       0.173100
     27 CAF         -9.3270     1.0000    -7.1210 ca         1 DGV      -0.082300
     28 CAE         -9.7650     0.5960    -5.8740 ca         1 DGV      -0.092500
     29 CAD        -11.0440     0.0950    -5.7210 ca         1 DGV      -0.103000
     30 CAA        -11.8850    -0.0010    -6.8140 ca         1 DGV      -0.105000
     31 CAB        -11.4470     0.4030    -8.0610 ca         1 DGV      -0.103000
     32 CAC        -10.1690     0.9080    -8.2140 ca         1 DGV      -0.092500
     33 H1           1.8870     0.0000     2.1360 ha         1 DGV       0.116000
     34 H2           4.3520    -0.0010     2.1360 ha         1 DGV       0.110000
     35 H3           5.5850    -0.0010     0.0020 ha         1 DGV       0.116000
     36 H4           2.3740    -0.0000    -3.3310 hc         1 DGV       0.044700
     37 H5           0.1080     1.2520    -1.7360 hc         1 DGV       0.034200
     38 H6           1.4070     2.1270    -2.5670 hc         1 DGV       0.034200
     39 H7           0.6570     1.2000    -4.7250 h1         1 DGV       0.009950
     40 H8          -0.6620     2.0750    -3.9290 h1         1 DGV       0.009950
     41 H9           0.1200    -1.2810    -1.7420 hc         1 DGV       0.034200
     42 H10          1.4250    -2.1400    -2.5790 hc         1 DGV       0.034200
     43 H11          0.6660    -1.2070    -4.7320 h1         1 DGV       0.009950
     44 H12         -0.6470    -2.0960    -3.9410 h1         1 DGV       0.009950
     45 H14         -2.2600    -0.9590    -5.1350 h1         1 DGV       0.012200
     46 H15         -1.1550     0.1340    -5.9800 h1         1 DGV       0.012200
     47 H16         -3.3400     0.9770    -4.0420 hc         1 DGV       0.026700
     48 H17         -2.2350     2.0710    -4.8860 hc         1 DGV       0.026700
     49 H18         -4.2060     0.1750    -6.2160 h1         1 DGV       0.027700
     50 H19         -3.1010     1.2690    -7.0600 h1         1 DGV       0.027700
     51 H20         -4.6120     2.8330    -5.2470 hn         1 DGV       0.178500
     52 H22         -9.5770     3.8790    -8.1150 h1         1 DGV       0.022700
     53 H23         -7.7480     5.4140    -9.3640 hc         1 DGV       0.022700
     54 H24         -8.1520     5.7570    -7.6540 hc         1 DGV       0.022700
     55 H25         -5.7830     4.1740    -8.7670 hc         1 DGV       0.026700
     56 H26         -5.7770     5.4320    -7.4980 hc         1 DGV       0.026700
     57 H27         -6.5270     3.9600    -5.8680 h1         1 DGV       0.035700
     58 H29         -7.5750     1.3240    -8.2870 h1         1 DGV       0.042700
     59 H30         -7.2750     1.0890    -6.5590 h1         1 DGV       0.042700
     60 H31         -9.1070     0.6710    -5.0180 ha         1 DGV       0.105000
     61 H32        -11.3880    -0.2220    -4.7440 ha         1 DGV       0.100000
     62 H33        -12.8870    -0.3960    -6.6940 ha         1 DGV       0.100000
     63 H34        -12.1060     0.3300    -8.9180 ha         1 DGV       0.100000
     64 H35         -9.8260     1.2250    -9.1910 ha         1 DGV       0.105000
     65 H21         -8.3570     3.1070    -9.1600 h1         1 DGV       0.022700
@<TRIPOS>BOND
     1     1     2 1   
     2     2     3 ar  
     3     2     8 ar  
     4     3     4 ar  
     5     3    33 1   
     6     4     5 ar  
     7     4    34 1   
     8     5     6 ar  
     9     5    35 1   
    10     6     7 1   
    11     6     8 ar  
    12     8     9 1   
    13     9    10 1   
    14     9    12 1   
    15     9    36 1   
    16    10    11 1   
    17    10    37 1   
    18    10    38 1   
    19    11    14 1   
    20    11    39 1   
    21    11    40 1   
    22    12    13 1   
    23    12    41 1   
    24    12    42 1   
    25    13    14 1   
    26    13    43 1   
    27    13    44 1   
    28    14    15 1   
    29    15    16 1   
    30    15    45 1   
    31    15    46 1   
    32    16    17 1   
    33    16    47 1   
    34    16    48 1   
    35    17    18 1   
    36    17    49 1   
    37    17    50 1   
    38    18    19 1   
    39    18    51 1   
    40    19    20 2   
    41    19    24 1   
    42    21    22 1   
    43    21    25 1   
    44    21    52 1   
    45    21    65 1   
    46    22    23 1   
    47    22    53 1   
    48    22    54 1   
    49    23    24 1   
    50    23    55 1   
    51    23    56 1   
    52    24    25 1   
    53    24    57 1   
    54    25    26 1   
    55    26    27 1   
    56    26    58 1   
    57    26    59 1   
    58    27    28 ar  
    59    27    32 ar  
    60    28    29 ar  
    61    28    60 1   
    62    29    30 ar  
    63    29    61 1   
    64    30    31 ar  
    65    30    62 1   
    66    31    32 ar  
    67    31    63 1   
    68    32    64 1   
@<TRIPOS>SUBSTRUCTURE
     1 DGV         1 TEMP              0 ****  ****    0 ROOT
