@<TRIPOS>MOLECULE
molecule
   57    60     1     0     0
SMALL
bcc


@<TRIPOS>ATOM
      1 ClAC         0.0000     0.0000     0.0000 cl         1 DGW      -0.090900
      2 CAT          1.7360     0.0000     0.0000 ca         1 DGW       0.034400
      3 CAH          2.4280     0.0000     1.1980 ca         1 DGW      -0.117000
      4 CAE          3.8100    -0.0010     1.1970 ca         1 DGW      -0.118000
      5 CAI          4.5030    -0.0020     0.0010 ca         1 DGW      -0.117000
      6 CAU          3.8120    -0.0020    -1.1980 ca         1 DGW       0.034400
      7 ClAD         4.6800    -0.0030    -2.7010 cl         1 DGW      -0.090900
      8 CAX          2.4270    -0.0060    -1.1980 ca         1 DGW      -0.059300
      9 CBA          1.6750    -0.0070    -2.5040 c3         1 DGW      -0.032400
     10 CAM          0.7970    -1.2580    -2.5880 c3         1 DGW      -0.085400
     11 CAO         -0.0110    -1.2230    -3.8870 c3         1 DGW       0.166800
     12 CAN          0.7860     1.2380    -2.5820 c3         1 DGW      -0.085400
     13 CAP         -0.0210     1.2010    -3.8810 c3         1 DGW       0.166800
     14 NBB         -0.8450    -0.0150    -3.9120 n3         1 DGW      -0.731600
     15 CAR         -1.7380    -0.0170    -5.0800 c3         1 DGW       0.162800
     16 CAZ         -2.8960    -0.9850    -4.8350 c3         1 DGW      -0.067700
     17 CAQ         -3.7270    -1.0700    -6.1010 c3         1 DGW      -0.090400
     18 CAY         -4.7620    -2.1940    -6.0010 c3         1 DGW       0.195400
     19 OAB         -5.1060    -2.6470    -7.3120 oh         1 DGW      -0.604800
     20 CAV         -5.9950    -1.6490    -5.3100 ca         1 DGW      -0.092300
     21 CAJ         -7.1550    -1.4540    -6.0390 ca         1 DGW      -0.106000
     22 CAF         -8.2820    -0.9570    -5.4110 ca         1 DGW      -0.136000
     23 CAG         -8.2470    -0.6570    -4.0610 ca         1 DGW      -0.125000
     24 CAS         -7.0840    -0.8550    -3.3380 ca         1 DGW      -0.084300
     25 CAA         -7.0430    -0.5300    -1.8670 c3         1 DGW      -0.044800
     26 CAW         -5.9610    -1.3520    -3.9730 ca         1 DGW      -0.074300
     27 CAK         -4.6900    -1.5690    -3.1780 c3         1 DGW      -0.042100
     28 CAL         -3.6640    -0.5170    -3.6150 c3         1 DGW      -0.070400
     29 H1           1.8870     0.0010     2.1360 ha         1 DGW       0.147000
     30 H2           4.3520    -0.0010     2.1360 ha         1 DGW       0.143000
     31 H3           5.5860    -0.0020     0.0020 ha         1 DGW       0.147000
     32 H4           2.3750    -0.0020    -3.3300 hc         1 DGW       0.070700
     33 H5           0.1190    -1.2810    -1.7420 hc         1 DGW       0.059700
     34 H6           1.4250    -2.1410    -2.5780 hc         1 DGW       0.059700
     35 H7           0.6660    -1.2100    -4.7320 h1         1 DGW       0.033700
     36 H8          -0.6460    -2.0990    -3.9400 h1         1 DGW       0.033700
     37 H9           0.1080     1.2510    -1.7370 hc         1 DGW       0.059700
     38 H10          1.4070     2.1260    -2.5680 hc         1 DGW       0.059700
     39 H11         -0.6630     2.0720    -3.9310 h1         1 DGW       0.033700
     40 H12          0.6580     1.1980    -4.7260 h1         1 DGW       0.033700
     41 H14         -1.1850    -0.3300    -5.9570 h1         1 DGW       0.035700
     42 H15         -2.1290     0.9810    -5.2370 h1         1 DGW       0.035700
     43 H16         -2.4910    -1.9670    -4.6270 hc         1 DGW       0.044700
     44 H17         -3.0670    -1.2840    -6.9320 hc         1 DGW       0.057200
     45 H18         -4.2510    -0.1310    -6.2330 hc         1 DGW       0.057200
     46 H19         -4.3540    -3.0130    -5.4220 h1         1 DGW       0.040700
     47 H20         -4.7760    -3.5200    -7.4390 ho         1 DGW       0.402000
     48 H21         -7.1800    -1.6900    -7.0960 ha         1 DGW       0.150000
     49 H22         -9.1930    -0.8020    -5.9760 ha         1 DGW       0.128000
     50 H23         -9.1310    -0.2680    -3.5700 ha         1 DGW       0.127000
     51 H24         -6.3140     0.2520    -1.6910 hc         1 DGW       0.042367
     52 H25         -8.0210    -0.1910    -1.5450 hc         1 DGW       0.042367
     53 H26         -6.7660    -1.4160    -1.3090 hc         1 DGW       0.042367
     54 H27         -4.3010    -2.5610    -3.3770 hc         1 DGW       0.049700
     55 H28         -4.8980    -1.4580    -2.1210 hc         1 DGW       0.049700
     56 H29         -4.1810     0.4050    -3.8520 hc         1 DGW       0.058700
     57 H30         -2.9680    -0.3420    -2.8030 hc         1 DGW       0.058700
@<TRIPOS>BOND
     1    25    24 1
     2    23    24 ar
     3    23    22 ar
     4    24    26 ar
     5    22    21 ar
     6    26    27 1
     7    26    20 ar
     8    21    20 ar
     9    27    28 1
    10    20    18 1
    11    28    16 1
    12    18    19 1
    13    18    17 1
    14    17    16 1
    15    16    15 1
    16    15    14 1
    17    14    11 1
    18    14    13 1
    19    11    10 1
    20    13    12 1
    21    10     9 1
    22    12     9 1
    23     9     8 1
    24     7     6 1
    25     8     6 ar
    26     8     2 ar
    27     6     5 ar
    28     1     2 1
    29     2     3 ar
    30     5     4 ar
    31     3     4 ar
    32     3    29 1
    33     4    30 1
    34     5    31 1
    35     9    32 1
    36    10    33 1
    37    10    34 1
    38    11    35 1
    39    11    36 1
    40    12    37 1
    41    12    38 1
    42    13    39 1
    43    13    40 1
    44    15    41 1
    45    15    42 1
    46    16    43 1
    47    17    44 1
    48    17    45 1
    49    18    46 1
    50    19    47 1
    51    21    48 1
    52    22    49 1
    53    23    50 1
    54    25    51 1
    55    25    52 1
    56    25    53 1
    57    27    54 1
    58    27    55 1
    59    28    56 1
    60    28    57 1
@<TRIPOS>SUBSTRUCTURE
     1 DGW         1 TEMP              0 ****  ****    0 ROOT
