@<TRIPOS>MOLECULE
DGY
   12    11     1     0     0
SMALL
bcc


@<TRIPOS>ATOM
      1 C1          0.1150   -0.2080   -0.1130 c         1 DGY      0.891600
      2 O1         -0.4330   -0.1630   -1.2470 o         1 DGY     -0.834300
      3 O2         -0.4980   -0.3610    0.9840 o         1 DGY     -0.834300
      4 C2          1.6590   -0.0640   -0.0300 c3        1 DGY      0.015100
      5 O3          2.1310   -0.1910    1.3000 oh        1 DGY     -0.638800
      6 C3          2.0680    1.2980   -0.5910 c3        1 DGY      0.117400
      7 O4          3.3920    1.1950   -1.1050 oh        1 DGY     -0.611800
      8 H2          2.1520   -0.8790   -0.6240 h1        1 DGY      0.054700
      9 H3          1.3500   -0.1910    1.8770 ho        1 DGY      0.420000
     10 H3C1        2.0450    2.0770    0.2160 h1        1 DGY      0.026700
     11 H3C2        1.3610    1.5810   -1.4170 h1        1 DGY      0.026700
     12 H4          3.5650    2.0250   -1.5610 ho        1 DGY      0.367000
@<TRIPOS>BOND
     1    1    2 1   
     2    1    3 1   
     3    1    4 1   
     4    4    5 1   
     5    4    6 1   
     6    4    8 1   
     7    5    9 1   
     8    6    7 1   
     9    6   10 1   
    10    6   11 1   
    11    7   12 1   
@<TRIPOS>SUBSTRUCTURE
     1 DGY         1 TEMP              0 ****  ****    0 ROOT
