@<TRIPOS>MOLECULE
molecule
   12    11     1     0     0
SMALL
bcc


@<TRIPOS>ATOM
      1 C1           0.0000     0.0000     0.0000 c          1 DGY       0.874600
      2 O1          -0.6710     0.0000    -1.1630 o          1 DGY      -0.838800
      3 O2          -0.6050     0.0010     1.0450 o          1 DGY      -0.838800
      4 C2           1.5060     0.0000     0.0000 c3         1 DGY       0.047100
      5 O3           1.9810     0.0000     1.3480 oh         1 DGY      -0.597800
      6 C3           2.0170     1.2480    -0.7210 c3         1 DGY       0.144400
      7 O4           3.4460     1.2470    -0.7200 oh         1 DGY      -0.630800
      8 H2           1.8670    -0.8850    -0.5100 h1         1 DGY       0.023700
      9 H3           2.2810    -0.8640     1.5750 ho         1 DGY       0.377000
     10 H3C1         1.6570     1.2480    -1.7430 h1         1 DGY       0.033200
     11 H3C2         1.6560     2.1330    -0.2110 h1         1 DGY       0.033200
     12 H4           3.7620     1.9870    -1.2120 ho         1 DGY       0.373000
@<TRIPOS>BOND
     1     1     2 1
     2     1     3 1
     3     1     4 1
     4     4     5 1
     5     4     6 1
     6     4     8 1
     7     5     9 1
     8     6     7 1
     9     6    10 1
    10     6    11 1
    11     7    12 1
@<TRIPOS>SUBSTRUCTURE
     1 DGY         1 TEMP              0 ****  ****    0 ROOT
