@<TRIPOS>MOLECULE
DH1
   46    47     1     0     0
SMALL
bcc


@<TRIPOS>ATOM
      1 C16          0.0000     0.0000     0.0000 c3         1 DH1       0.215700
      2 O1           1.4290     0.0000     0.0000 os         1 DH1      -0.290900
      3 C2'          1.8220     0.0000     1.3020 ca         1 DH1       0.091100
      4 C3'          0.8720    -0.0010     2.3130 ca         1 DH1      -0.168000
      5 C4'          1.2720    -0.0020     3.6360 ca         1 DH1      -0.176000
      6 C5'          2.6230    -0.0010     3.9510 ca         1 DH1       0.122100
      7 O5'          3.0160    -0.0010     5.2540 os         1 DH1      -0.285900
      8 C52          1.8260    -0.0030     6.0440 c3         1 DH1       0.169400
      9 C1           2.1990    -0.0020     7.5280 c3         1 DH1      -0.047400
     10 C3           0.9240    -0.0040     8.3750 c3         1 DH1      -0.011400
     11 C7           1.2980    -0.0040     9.8590 c3         1 DH1      -0.133400
     12 C8           0.0430    -0.0050    10.6930 c          1 DH1       0.980600
     13 O9           0.1280    -0.0060    12.0330 o          1 DH1      -0.904800
     14 O10         -1.0390    -0.0060    10.1550 o          1 DH1      -0.904800
     15 C6'          3.5720    -0.0000     2.9410 ca         1 DH1      -0.125000
     16 C1'          3.1730    -0.0050     1.6180 ca         1 DH1      -0.097300
     17 C51          4.2040    -0.0050     0.5200 c3         1 DH1       0.121200
     18 C5           4.4530     1.4100     0.0650 ca         1 DH1      -0.415900
     19 C6           3.7800     1.9310    -1.0230 ca         1 DH1       0.497200
     20 N1           4.0220     3.1790    -1.3980 nb         1 DH1      -0.700000
     21 C2           4.8960     3.9290    -0.7430 ca         1 DH1       0.747900
     22 N2           5.1190     5.2270    -1.1660 nv         1 DH1      -0.634500
     23 N3           5.5610     3.4670     0.3040 nb         1 DH1      -0.711000
     24 C4           5.3650     2.2270     0.7380 ca         1 DH1       0.551200
     25 N4           6.0620     1.7460     1.8340 nv         1 DH1      -0.528500
     26 H161        -0.3610    -0.8850     0.5090 h1         1 DH1       0.001367
     27 H162        -0.3610     0.8840     0.5120 h1         1 DH1       0.001367
     28 H163        -0.3610     0.0020    -1.0210 h1         1 DH1       0.001367
     29 H3'         -0.1820    -0.0020     2.0660 ha         1 DH1       0.130000
     30 H4'          0.5310    -0.0030     4.4260 ha         1 DH1       0.147000
     31 H521         1.2410     0.8820     5.8190 h1         1 DH1       0.011200
     32 H522         1.2430    -0.8880     5.8190 h1         1 DH1       0.011200
     33 H11          2.7810     0.8830     7.7540 hc         1 DH1       0.015200
     34 H12          2.7830    -0.8860     7.7540 hc         1 DH1       0.015200
     35 H31          0.3410    -0.8890     8.1490 hc         1 DH1       0.020700
     36 H32          0.3400     0.8800     8.1500 hc         1 DH1       0.020700
     37 H71          1.8820    -0.8890    10.0830 hc         1 DH1       0.005700
     38 H72          1.8810     0.8800    10.0840 hc         1 DH1       0.005700
     39 H6'          4.6270    -0.0020     3.1880 ha         1 DH1       0.112000
     40 H511         5.1270    -0.4330     0.8910 hc         1 DH1       0.020700
     41 H512         3.8430    -0.5940    -0.3150 hc         1 DH1       0.020700
     42 H6           3.0640     1.3250    -1.5650 h4         1 DH1      -0.010900
     43 HN21         4.4700     5.9500    -0.9260 hn         1 DH1       0.274300
     44 HN22         5.9280     5.4420    -1.7150 hn         1 DH1       0.274300
     45 HN41         6.7500     2.3200     2.2790 hn         1 DH1       0.280300
     46 HN42         5.9180     0.8060     2.1450 hn         1 DH1       0.280300
@<TRIPOS>BOND
     1     1     2 1   
     2     1    26 1   
     3     1    27 1   
     4     1    28 1   
     5     2     3 1   
     6     3     4 ar  
     7     3    16 ar  
     8     4     5 ar  
     9     4    29 1   
    10     5     6 ar  
    11     5    30 1   
    12     6     7 1   
    13     6    15 ar  
    14     7     8 1   
    15     8     9 1   
    16     8    31 1   
    17     8    32 1   
    18     9    10 1   
    19     9    33 1   
    20     9    34 1   
    21    10    11 1   
    22    10    35 1   
    23    10    36 1   
    24    11    12 1   
    25    11    37 1   
    26    11    38 1   
    27    12    13 1   
    28    12    14 1   
    29    15    16 ar  
    30    15    39 1   
    31    16    17 1   
    32    17    18 1   
    33    17    40 1   
    34    17    41 1   
    35    18    19 ar  
    36    18    24 ar  
    37    19    20 ar  
    38    19    42 1   
    39    20    21 ar  
    40    21    22 1   
    41    21    23 ar  
    42    22    43 1   
    43    22    44 1   
    44    23    24 ar  
    45    24    25 1   
    46    25    45 1   
    47    25    46 1   
@<TRIPOS>SUBSTRUCTURE
     1 DH1         1 TEMP              0 ****  ****    0 ROOT
