@<TRIPOS>MOLECULE
molecule
   34    36     1     0     0
SMALL
bcc


@<TRIPOS>ATOM
      1 C1           0.0000     0.0000     0.0000 ca         1 DH2      -0.279000
      2 C2           1.3830     0.0000     0.0000 ca         1 DH2       0.226100
      3 C3           2.0770     0.0000     1.2200 ca         1 DH2      -0.284600
      4 C4           1.3800    -0.0360     2.4390 ca         1 DH2       0.197100
      5 C5          -0.0090    -0.0280     2.4130 ca         1 DH2      -0.218000
      6 C6          -0.6910    -0.0080     1.2060 ca         1 DH2       0.195100
      7 C9           3.5470     0.0530     1.2300 c          1 DH2       0.553700
      8 C10          4.1900    -0.1030     2.6010 c3         1 DH2       0.028100
      9 C11          3.2490     0.5960     3.5920 c3         1 DH2       0.195400
     10 C14          3.8710     0.5820     4.9660 ca         1 DH2      -0.092300
     11 C15          4.6890     1.6230     5.3630 ca         1 DH2      -0.085000
     12 C16          5.2620     1.6150     6.6210 ca         1 DH2      -0.168000
     13 C17          5.0150     0.5630     7.4870 ca         1 DH2       0.101100
     14 C18          4.1910    -0.4840     7.0880 ca         1 DH2       0.084100
     15 C19          3.6160    -0.4670     5.8280 ca         1 DH2      -0.121000
     16 O12          2.0030    -0.0800     3.6350 os         1 DH2      -0.288900
     17 O13          4.1990     0.2130     0.2190 o          1 DH2      -0.481100
     18 O23          3.9450    -1.5180     7.9360 oh         1 DH2      -0.503100
     19 O24          5.5770     0.5540     8.7260 oh         1 DH2      -0.502100
     20 O27          5.4740     0.5220     2.6140 oh         1 DH2      -0.579800
     21 O29         -2.0470     0.0050     1.2020 oh         1 DH2      -0.518100
     22 O30          2.0640    -0.0010    -1.1730 oh         1 DH2      -0.473100
     23 H1          -0.5430     0.0160    -0.9370 ha         1 DH2       0.151000
     24 HB          -0.5640    -0.0340     3.3440 ha         1 DH2       0.163000
     25 HD           4.2780    -1.1530     2.8510 h1         1 DH2       0.070700
     26 H11          3.0900     1.6200     3.2740 h1         1 DH2       0.075700
     27 H15          4.8830     2.4470     4.6860 ha         1 DH2       0.145000
     28 H16          5.9030     2.4320     6.9290 ha         1 DH2       0.144000
     29 H19          2.9740    -1.2820     5.5150 ha         1 DH2       0.154000
     30 H23          4.5170    -2.2380     7.7270 ho         1 DH2       0.415000
     31 H24          6.5150     0.5030     8.6460 ho         1 DH2       0.417000
     32 H27          6.1160    -0.0700     2.2590 ho         1 DH2       0.420000
     33 HC          -2.3530     0.8920     1.1160 ho         1 DH2       0.431000
     34 HA           1.6430    -0.5860    -1.7810 ho         1 DH2       0.428000
@<TRIPOS>BOND
     1     1     2 ar
     2     1     6 ar
     3     1    23 1
     4     2     3 ar
     5     2    22 1
     6     3     4 ar
     7     3     7 1
     8     4     5 ar
     9     4    16 1
    10     5     6 ar
    11     5    24 1
    12     6    21 1
    13     7     8 1
    14     7    17 2
    15     8     9 1
    16     8    20 1
    17     8    25 1
    18     9    10 1
    19     9    16 1
    20     9    26 1
    21    10    11 ar
    22    10    15 ar
    23    11    12 ar
    24    11    27 1
    25    12    13 ar
    26    12    28 1
    27    13    14 ar
    28    13    19 1
    29    14    15 ar
    30    14    18 1
    31    15    29 1
    32    18    30 1
    33    19    31 1
    34    20    32 1
    35    21    33 1
    36    22    34 1
@<TRIPOS>SUBSTRUCTURE
     1 DH2         1 TEMP              0 ****  ****    0 ROOT
