@<TRIPOS>MOLECULE
DH2
   34    36     1     0     0
SMALL
bcc


@<TRIPOS>ATOM
      1 C1         -0.0390   -0.1400    0.0110 ca        1 DH2     -0.358000
      2 C2          1.3590   -0.0360   -0.0110 ca        1 DH2      0.256100
      3 C3          2.1090    0.0960    1.1790 ca        1 DH2     -0.305600
      4 C4          1.3980    0.1360    2.3980 ca        1 DH2      0.235100
      5 C5          0.0020    0.0370    2.4530 ca        1 DH2     -0.238000
      6 C6         -0.6990   -0.1070    1.2480 ca        1 DH2      0.226100
      7 C9          3.5630    0.1760    1.1760 c         1 DH2      0.566700
      8 C10         4.2220    0.0920    2.5480 c3        1 DH2      0.023100
      9 C11         3.3540    0.7760    3.6180 c3        1 DH2      0.204400
     10 C14         3.9040    0.5870    5.0000 ca        1 DH2     -0.093300
     11 C15         5.0450    1.3150    5.3610 ca        1 DH2     -0.100000
     12 C16         5.5890    1.1870    6.6360 ca        1 DH2     -0.175000
     13 C17         4.9870    0.3280    7.5600 ca        1 DH2      0.047100
     14 C18         3.8390   -0.4090    7.2010 ca        1 DH2      0.102100
     15 C19         3.2990   -0.2780    5.9150 ca        1 DH2     -0.104000
     16 O12         2.0190    0.2280    3.6210 os        1 DH2     -0.314900
     17 O13         4.2730    0.2850    0.1700 o         1 DH2     -0.519100
     18 O23         3.2050   -1.2710    8.0650 oh        1 DH2     -0.494100
     19 O24         5.4540    0.1440    8.8450 oh        1 DH2     -0.516100
     20 O27         5.4810    0.7440    2.5520 oh        1 DH2     -0.592800
     21 O29        -2.0620   -0.2040    1.3490 oh        1 DH2     -0.482100
     22 O30         2.0600   -0.0710   -1.1840 oh        1 DH2     -0.455100
     23 H1         -0.6050   -0.2460   -0.9230 ha        1 DH2      0.143000
     24 HB         -0.5280    0.0670    3.4140 ha        1 DH2      0.177000
     25 HD          4.3670   -0.9960    2.8060 h1        1 DH2      0.081700
     26 H11         3.2750    1.8760    3.3840 h1        1 DH2      0.077700
     27 H15         5.5270    1.9720    4.6190 ha        1 DH2      0.155000
     28 H16         6.4870    1.7560    6.9160 ha        1 DH2      0.138000
     29 H19         2.4000   -0.8540    5.6480 ha        1 DH2      0.168000
     30 H23         3.6870   -1.2580    8.9060 ho        1 DH2      0.436000
     31 H24         6.2460    0.6890    8.9530 ho        1 DH2      0.430000
     32 H27         5.8780    0.6050    1.6780 ho        1 DH2      0.432000
     33 HC         -2.4300   -0.2920    0.4570 ho        1 DH2      0.427000
     34 HA          1.4290   -0.1660   -1.9150 ho        1 DH2      0.424000
@<TRIPOS>BOND
     1    1    2 ar  
     2    1    6 ar  
     3    1   23 1   
     4    2    3 ar  
     5    2   22 1   
     6    3    4 ar  
     7    3    7 1   
     8    4    5 ar  
     9    4   16 1   
    10    5    6 ar  
    11    5   24 1   
    12    6   21 1   
    13    7    8 1   
    14    7   17 2   
    15    8    9 1   
    16    8   20 1   
    17    8   25 1   
    18    9   10 1   
    19    9   16 1   
    20    9   26 1   
    21   10   11 ar  
    22   10   15 ar  
    23   11   12 ar  
    24   11   27 1   
    25   12   13 ar  
    26   12   28 1   
    27   13   14 ar  
    28   13   19 1   
    29   14   15 ar  
    30   14   18 1   
    31   15   29 1   
    32   18   30 1   
    33   19   31 1   
    34   20   32 1   
    35   21   33 1   
    36   22   34 1   
@<TRIPOS>SUBSTRUCTURE
     1 DH2         1 TEMP              0 ****  ****    0 ROOT
