@<TRIPOS>MOLECULE
DH3
   48    49     1     0     0
SMALL
bcc


@<TRIPOS>ATOM
      1 N4           0.0000     0.0000     0.0000 nv         1 DH3      -0.663500
      2 C4           1.4150     0.0000     0.0000 ca         1 DH3       0.548200
      3 N3           2.0570     0.0000     1.2030 nb         1 DH3      -0.721000
      4 C2           3.4250     0.0010     1.2920 ca         1 DH3       0.712900
      5 N2           4.0360    -0.0030     2.5650 nv         1 DH3      -0.525500
      6 N1           4.1660    -0.0010     0.1520 nb         1 DH3      -0.700000
      7 C6           3.5870     0.0030    -1.0790 ca         1 DH3       0.510200
      8 C5           2.1700    -0.0010    -1.2270 ca         1 DH3      -0.366900
      9 C51          1.2140    -0.0200    -2.4940 c3         1 DH3       0.153200
     10 C1'          2.0540     0.0510    -3.8030 ca         1 DH3      -0.112300
     11 C6'          2.8110    -1.0600    -4.3130 ca         1 DH3      -0.079000
     12 C52          3.5600    -0.8870    -5.5240 ca         1 DH3       0.102000
     13 C53          4.3440    -2.0350    -6.0380 cg         1 DH3      -0.214000
     14 C54          4.6950    -3.0290    -6.5970 c1         1 DH3      -0.020100
     15 C1           4.9190    -4.0710    -7.2640 c3         1 DH3       0.069700
     16 C3           4.8910    -5.3620    -7.2290 c3         1 DH3       0.040600
     17 C7           4.4770    -6.1460    -6.0720 c3         1 DH3      -0.215400
     18 C8           3.6460    -7.2040    -5.4180 c          1 DH3       1.057600
     19 O10          3.5190    -8.3000    -5.9400 o          1 DH3      -0.896800
     20 O9           3.0850    -6.9760    -4.3570 o          1 DH3      -0.896800
     21 C4'          3.5610     0.3580    -6.2360 ca         1 DH3       0.119100
     22 O5           4.3190     0.4700    -7.4240 os         1 DH3      -0.395900
     23 C5'          5.5910     1.2980    -7.8140 c3         1 DH3       0.309700
     24 C3'          2.7980     1.4520    -5.7120 ca         1 DH3       0.083100
     25 O4           2.7670     2.6800    -6.3660 os         1 DH3      -0.379900
     26 C4B          1.8280     2.7810    -7.7990 c3         1 DH3       0.289700
     27 C2'          2.0630     1.2720    -4.5130 ca         1 DH3      -0.128000
     28 HN41        -0.5000    -0.8670     0.0260 hn         1 DH3       0.278300
     29 HN42        -0.5000     0.8670     0.0240 hn         1 DH3       0.278300
     30 HN21         3.5460    -0.3760     3.3540 hn         1 DH3       0.271800
     31 HN22         4.9470     0.3930     2.6830 hn         1 DH3       0.271800
     32 H6           4.2140     0.0020    -1.9620 h4         1 DH3      -0.007900
     33 H511         0.5450     0.8310    -2.4510 hc         1 DH3       0.020200
     34 H512         0.6320    -0.9330    -2.4910 hc         1 DH3       0.020200
     35 H6'          2.6510    -2.0540    -3.9120 ha         1 DH3       0.137000
     36 H11          5.9430    -3.8980    -7.5720 hc         1 DH3       0.014700
     37 H12          4.3210    -3.8790    -8.1470 hc         1 DH3       0.014700
     38 H31          5.8940    -5.6910    -7.4730 hc         1 DH3      -0.006300
     39 H32          4.2520    -5.6710    -8.0470 hc         1 DH3      -0.006300
     40 H71          5.4530    -6.5000    -5.7640 hc         1 DH3      -0.005800
     41 H72          4.2460    -5.3280    -5.4010 hc         1 DH3      -0.005800
     42 H5'1         5.4090     1.8220    -8.7450 h1         1 DH3      -0.012300
     43 H5'2         6.4340     0.6290    -7.9350 h1         1 DH3      -0.012300
     44 H5'3         5.8080     2.0160    -7.0330 h1         1 DH3      -0.012300
     45 H4'1         2.3750     3.3370    -8.5500 h1         1 DH3      -0.007633
     46 H4'2         1.6230     1.7830    -8.1670 h1         1 DH3      -0.007633
     47 H4'3         0.8940     3.2850    -7.5830 h1         1 DH3      -0.007633
     48 H2'          1.4890     2.1050    -4.1250 ha         1 DH3       0.106000
@<TRIPOS>BOND
     1     1     2 1   
     2     1    28 1   
     3     1    29 1   
     4     2     3 ar  
     5     2     8 ar  
     6     3     4 ar  
     7     4     5 1   
     8     4     6 ar  
     9     5    30 1   
    10     5    31 1   
    11     6     7 ar  
    12     7     8 ar  
    13     7    32 1   
    14     8     9 1   
    15     9    10 1   
    16     9    33 1   
    17     9    34 1   
    18    10    11 ar  
    19    10    27 ar  
    20    11    12 ar  
    21    11    35 1   
    22    12    13 1   
    23    12    21 ar  
    24    13    14 3   
    25    14    15 1   
    26    15    16 1   
    27    15    36 1   
    28    15    37 1   
    29    16    17 1   
    30    16    38 1   
    31    16    39 1   
    32    17    18 1   
    33    17    40 1   
    34    17    41 1   
    35    18    19 1   
    36    18    20 1   
    37    21    22 1   
    38    21    24 ar  
    39    22    23 1   
    40    23    42 1   
    41    23    43 1   
    42    23    44 1   
    43    24    25 1   
    44    24    27 ar  
    45    25    26 1   
    46    26    45 1   
    47    26    46 1   
    48    26    47 1   
    49    27    48 1   
@<TRIPOS>SUBSTRUCTURE
     1 DH3         1 TEMP              0 ****  ****    0 ROOT
