@<TRIPOS>MOLECULE
molecule
   46    47     1     0     0
SMALL
bcc


@<TRIPOS>ATOM
      1 C            0.0000     0.0000     0.0000 c          1 DH4       0.612900
      2 N            0.1990    -0.0060     2.4190 n2         1 DH4      -0.679900
      3 O            1.2070     0.0000     0.0000 o          1 DH4      -0.518100
      4 CA          -0.7530     0.0000     1.3050 c3         1 DH4       0.048500
      5 CAE          3.3420    -2.6070     4.4290 c3         1 DH4      -0.076400
      6 CAF          4.0700    -1.2700     4.3180 c3         1 DH4      -0.076400
      7 CAG          2.4530    -2.5920     5.6490 c3         1 DH4      -0.100400
      8 CAH          3.3030    -0.2170     3.6350 c3         1 DH4      -0.100400
      9 CAI          1.0420    -2.1060     5.2700 c3         1 DH4       0.245800
     10 CAJ          2.0160     0.1130     4.4300 c3         1 DH4       0.245800
     11 NAL          1.0790    -0.9820     4.3140 nh         1 DH4      -0.790600
     12 H1          -0.5410    -0.0560    -0.9370 h4         1 DH4       0.017200
     13 H2          -1.3790    -0.8820     1.3610 h1         1 DH4       0.028700
     14 H4          -0.5230    -1.7860     3.1640 h5         1 DH4      -0.027200
     15 H7           4.3090    -0.9260     5.3170 hc         1 DH4       0.036700
     16 H8           4.9930    -1.4280     3.7730 hc         1 DH4       0.036700
     17 H9           2.3890    -3.5940     6.0560 hc         1 DH4       0.052200
     18 H10          2.8740    -1.9240     6.3910 hc         1 DH4       0.052200
     19 H11          3.0320    -0.5580     2.6430 hc         1 DH4       0.052200
     20 H12          3.9130     0.6750     3.5580 hc         1 DH4       0.052200
     21 H13          0.5300    -1.7850     6.1690 h1         1 DH4       0.044950
     22 H14          0.4970    -2.9290     4.8230 h1         1 DH4       0.044950
     23 H15          2.2660     0.2620     5.4740 h1         1 DH4       0.044950
     24 H16          1.5670     1.0140     4.0300 h1         1 DH4       0.044950
     25 N1          -0.8540     2.4740     1.0290 n7         1 DH4      -0.767200
     26 C3          -1.7510     3.5720     0.6580 c3         1 DH4       0.047500
     27 C4          -3.0480     3.0840    -0.0140 c3         1 DH4       0.110100
     28 S1          -2.9130     1.2540     0.0700 ss         1 DH4      -0.451200
     29 C6          -1.6290     1.2530     1.3890 c3         1 DH4       0.294600
     30 H3          -0.2900     2.7520     1.8080 hn         1 DH4       0.365800
     31 H18         -2.0120     4.1240     1.5530 h1         1 DH4       0.023700
     32 H24         -2.0800     1.3570     2.3680 h2         1 DH4       0.034700
     33 C1          -4.2740     3.5700     0.7640 c3         1 DH4      -0.076600
     34 C2          -3.1120     3.5540    -1.4690 c3         1 DH4      -0.076600
     35 H17         -5.1730     3.1730     0.3070 hc         1 DH4       0.044700
     36 H20         -4.2090     3.2270     1.7900 hc         1 DH4       0.044700
     37 H21         -4.3070     4.6520     0.7470 hc         1 DH4       0.044700
     38 H22         -3.9470     3.0750    -1.9670 hc         1 DH4       0.044700
     39 H23         -3.2440     4.6290    -1.4960 hc         1 DH4       0.044700
     40 H25         -2.1910     3.2900    -1.9740 hc         1 DH4       0.044700
     41 C5          -1.0270     4.4900    -0.2930 c          1 DH4       0.900600
     42 O1          -1.4730     5.7410    -0.4890 o          1 DH4      -0.828800
     43 O2          -0.0450     4.1000    -0.8800 o          1 DH4      -0.828800
     44 H5           4.0670    -3.4060     4.5210 hc         1 DH4       0.036700
     45 CAC          0.1890    -0.9770     3.2720 c2         1 DH4       0.621100
     46 H6           2.7360    -2.7610     3.5440 hc         1 DH4       0.036700
@<TRIPOS>BOND
     1     5     6 1
     2     5     7 1
     3     6     8 1
     4     8    10 1
     5     7     9 1
     6    10    11 1
     7     9    11 1
     8    11    45 1
     9    45     2 2
    10     2     4 1
    11     3     1 2
    12     4     1 1
    13     1    12 1
    14     4    13 1
    15    45    14 1
    16     5    44 1
    17     5    46 1
    18     6    15 1
    19     6    16 1
    20     7    17 1
    21     7    18 1
    22     8    19 1
    23     8    20 1
    24     9    21 1
    25     9    22 1
    26    10    23 1
    27    10    24 1
    28     4    29 1
    29    29    25 1
    30    25    26 1
    31    26    27 1
    32    27    28 1
    33    28    29 1
    34    25    30 1
    35    26    31 1
    36    29    32 1
    37    27    33 1
    38    27    34 1
    39    33    35 1
    40    33    36 1
    41    33    37 1
    42    34    38 1
    43    34    39 1
    44    34    40 1
    45    26    41 1
    46    41    42 1
    47    41    43 1
@<TRIPOS>SUBSTRUCTURE
     1 DH4         1 TEMP              0 ****  ****    0 ROOT
