@<TRIPOS>MOLECULE
DH4
   46    48     1     0     0
SMALL
bcc


@<TRIPOS>ATOM
      1 C            0.0000     0.0000     0.0000 c2         1 DH4       0.269000
      2 N            0.1990    -0.0060     2.4190 n2         1 DH4      -0.177000
      3 O            1.2070     0.0000     0.0000 o          1 DH4      -0.307000
      4 CA          -0.7530     0.0000     1.3050 c3         1 DH4      -0.051000
      5 CAE          3.3420    -2.6070     4.4290 c3         1 DH4      -0.114000
      6 CAF          4.0700    -1.2700     4.3180 c3         1 DH4      -0.114000
      7 CAG          2.4530    -2.5920     5.6490 c3         1 DH4      -0.117500
      8 CAH          3.3030    -0.2170     3.6350 c3         1 DH4      -0.117500
      9 CAI          1.0420    -2.1060     5.2700 c3         1 DH4      -0.119000
     10 CAJ          2.0160     0.1130     4.4300 c3         1 DH4      -0.119000
     11 NAL          1.0790    -0.9820     4.3140 nx         1 DH4       0.194000
     12 H1          -0.5420    -0.0240    -0.9380 h4         1 DH4       0.077000
     13 H2          -1.3800    -0.8820     1.3610 h1         1 DH4       0.081000
     14 H4           0.0830    -0.3810     4.1710 DU         1 DH4       0.277000
     15 H7           4.9930    -1.4280     3.7730 hc         1 DH4       0.058500
     16 H8           4.3090    -0.9260     5.3170 hc         1 DH4       0.058500
     17 H9           2.8740    -1.9240     6.3910 hc         1 DH4       0.070500
     18 H10          2.3890    -3.5940     6.0560 hc         1 DH4       0.070500
     19 H11          3.0320    -0.5580     2.6430 hc         1 DH4       0.070500
     20 H12          3.9130     0.6750     3.5580 hc         1 DH4       0.070500
     21 H13          0.4970    -2.9290     4.8230 hx         1 DH4       0.076750
     22 H14          0.5300    -1.7850     6.1690 hx         1 DH4       0.076750
     23 H15          1.5670     1.0140     4.0300 hx         1 DH4       0.076750
     24 H16          2.2660     0.2630     5.4740 hx         1 DH4       0.076750
     25 N1          -0.8540     2.4740     1.0290 n7         1 DH4      -0.055000
     26 C3          -1.7510     3.5720     0.6580 c3         1 DH4      -0.158000
     27 C4          -3.0480     3.0840    -0.0140 c3         1 DH4      -0.074000
     28 S1          -2.9130     1.2540     0.0700 ss         1 DH4      -0.175000
     29 C6          -1.6290     1.2530     1.3890 c3         1 DH4      -0.118000
     30 H3          -0.2430     2.2680     0.2630 hn         1 DH4       0.109000
     31 H18         -2.0120     4.1240     1.5530 h1         1 DH4       0.086000
     32 H24         -2.0800     1.3570     2.3680 h2         1 DH4       0.088000
     33 C1          -4.2740     3.5700     0.7640 c3         1 DH4      -0.117500
     34 C2          -3.1120     3.5540    -1.4690 c3         1 DH4      -0.117500
     35 H17         -4.1940     3.2550     1.7980 hc         1 DH4       0.057500
     36 H20         -4.3250     4.6510     0.7200 hc         1 DH4       0.057500
     37 H21         -5.1700     3.1470     0.3270 hc         1 DH4       0.057500
     38 H22         -2.1990     3.2730    -1.9790 hc         1 DH4       0.057500
     39 H23         -3.2240     4.6310    -1.4960 hc         1 DH4       0.057500
     40 H25         -3.9580     3.0900    -1.9610 hc         1 DH4       0.057500
     41 C5          -1.0270     4.4900    -0.2930 c2         1 DH4       0.406000
     42 O1          -1.4730     5.7410    -0.4890 o          1 DH4      -0.615500
     43 O2          -0.0450     4.1000    -0.8800 o          1 DH4      -0.615500
     44 H5           2.7360    -2.7610     3.5440 hc         1 DH4       0.058500
     45 CAC          0.1890    -0.9770     3.2720 c2         1 DH4      -0.471000
     46 H6           4.0670    -3.4060     4.5210 hc         1 DH4       0.058500
@<TRIPOS>BOND
     1     1     3 1   
     2     1     4 1   
     3     1    12 1   
     4     2     4 1   
     5     2    45 1   
     6     4    13 1   
     7     4    29 1   
     8     5     6 1   
     9     5     7 1   
    10     5    44 1   
    11     5    46 1   
    12     6     8 1   
    13     6    15 1   
    14     6    16 1   
    15     7     9 1   
    16     7    17 1   
    17     7    18 1   
    18     8    10 1   
    19     8    19 1   
    20     8    20 1   
    21     9    11 1   
    22     9    21 1   
    23     9    22 1   
    24    10    11 1   
    25    10    23 1   
    26    10    24 1   
    27    11    14 1   
    28    11    45 1   
    29    14    45 1   
    30    25    26 1   
    31    25    29 1   
    32    25    30 1   
    33    26    27 1   
    34    26    31 1   
    35    26    41 1   
    36    27    28 1   
    37    27    33 1   
    38    27    34 1   
    39    28    29 1   
    40    29    32 1   
    41    33    35 1   
    42    33    36 1   
    43    33    37 1   
    44    34    38 1   
    45    34    39 1   
    46    34    40 1   
    47    41    42 1   
    48    41    43 1   
@<TRIPOS>SUBSTRUCTURE
     1 DH4         1 TEMP              0 ****  ****    0 ROOT
