@<TRIPOS>MOLECULE
DH5
   49    51     1     0     0
SMALL
bcc


@<TRIPOS>ATOM
      1 CBB          0.0000     0.0000     0.0000 c3         1 DH5       0.047200
      2 CAY          1.5070     0.0000     0.0000 ca         1 DH5      -0.037300
      3 CAV          2.1980     0.0000     1.1960 ca         1 DH5      -0.054000
      4 CAZ          2.1980    -0.0050    -1.1980 ca         1 DH5       0.034100
      5 Br1          1.2530    -0.0130    -2.8360 br         1 DH5      -0.061100
      6 CBA          3.5810    -0.0050    -1.1980 ca         1 DH5      -0.058000
      7 CAX          4.2710     0.0000    -0.0010 ca         1 DH5      -0.134000
      8 CAW          3.5800     0.0000     1.1960 ca         1 DH5      -0.161300
      9 CAT          4.3340     0.0010     2.5020 c3         1 DH5       0.088300
     10 NAO          4.5770    -1.3800     2.9250 n          1 DH5       0.050000
     11 CAP          5.7260    -2.0250     2.5260 cc         1 DH5      -0.373400
     12 NAU          6.6450    -1.3800     1.7310 nz         1 DH5       0.238600
     13 CAN          3.6810    -2.0080     3.7070 c          1 DH5       0.595500
     14 OAM          2.6750    -1.4210     4.0540 o          1 DH5      -0.642500
     15 NAF          3.8800    -3.2770     4.1100 ns         1 DH5      -0.089500
     16 CAG          4.9870    -3.9490     3.7390 c          1 DH5       0.599700
     17 OAA          5.1600    -5.0980     4.1090 o          1 DH5      -0.589500
     18 CAH          5.9450    -3.3150     2.9270 cd         1 DH5       0.072800
     19 NAI          7.1160    -4.0010     2.5310 nh         1 DH5      -0.384300
     20 CAB          7.5310    -3.9920     1.1260 c3         1 DH5       0.241100
     21 SAJ          8.0200    -4.8140     3.6550 sy         1 DH5       1.043200
     22 OAQ          9.3790    -4.5030     3.3790 o          1 DH5      -0.552300
     23 OAC          7.4080    -4.5710     4.9140 o          1 DH5      -0.552300
     24 CAK          7.8290    -6.5360     3.3330 ca         1 DH5      -0.166500
     25 CAR          8.6980    -7.1780     2.4710 ca         1 DH5       0.003000
     26 CAS          8.5470    -8.5290     2.2190 ca         1 DH5      -0.123500
     27 CAL          7.5280    -9.2370     2.8280 ca         1 DH5      -0.022000
     28 CAE          6.6600    -8.5940     3.6900 ca         1 DH5      -0.123500
     29 CAD          6.8130    -7.2440     3.9460 ca         1 DH5       0.003000
     30 HBB1        -0.3610     0.7820    -0.6580 hc         1 DH5       0.027367
     31 HBB2        -0.3610     0.1790     1.0060 hc         1 DH5       0.027367
     32 HBB3        -0.3610    -0.9600    -0.3480 hc         1 DH5       0.027367
     33 HAV          1.6570    -0.0000     2.1350 ha         1 DH5       0.142000
     34 HBA          4.1230    -0.0070    -2.1360 ha         1 DH5       0.125000
     35 HAX          5.3550     0.0010    -0.0010 ha         1 DH5       0.062000
     36 HAT1         3.7480     0.5120     3.2560 h1         1 DH5       0.051700
     37 HAT2         5.2800     0.5110     2.3720 h1         1 DH5       0.051700
     38 HAU1         7.5540    -1.7680     1.8900 hn         1 DH5       0.230467
     39 HAU2         6.3960    -1.4970     0.7690 hn         1 DH5       0.230467
     40 HAF          3.2000    -3.7240     4.6910 hn         1 DH5       0.230500
     41 HAB1         8.3250    -3.2670     0.9880 h1         1 DH5       0.017700
     42 HAB2         7.8890    -4.9760     0.8480 h1         1 DH5       0.017700
     43 HAB3         6.6870    -3.7260     0.5010 h1         1 DH5       0.017700
     44 HAR          9.4960    -6.6230     1.9940 ha         1 DH5       0.134500
     45 HAD          6.1320    -6.7400     4.6220 ha         1 DH5       0.134500
     46 HAS          9.2280    -9.0330     1.5430 ha         1 DH5       0.119000
     47 HAL          7.4100   -10.2950     2.6290 ha         1 DH5       0.113000
     48 HAE          5.8620    -9.1490     4.1690 ha         1 DH5       0.119000
     49 HAU3         6.6580    -0.4060     1.9600 hn         1 DH5       0.230467
@<TRIPOS>BOND
     1     1     2 1   
     2     1    30 1   
     3     1    31 1   
     4     1    32 1   
     5     2     3 ar  
     6     2     4 ar  
     7     3     8 ar  
     8     3    33 1   
     9     4     5 1   
    10     4     6 ar  
    11     6     7 ar  
    12     6    34 1   
    13     7     8 ar  
    14     7    35 1   
    15     8     9 1   
    16     9    10 1   
    17     9    36 1   
    18     9    37 1   
    19    10    11 1   
    20    10    13 1   
    21    11    12 1   
    22    11    18 2   
    23    12    38 1   
    24    12    39 1   
    25    12    49 1   
    26    13    14 2   
    27    13    15 1   
    28    15    16 1   
    29    15    40 1   
    30    16    17 2   
    31    16    18 1   
    32    18    19 1   
    33    19    20 1   
    34    19    21 1   
    35    20    41 1   
    36    20    42 1   
    37    20    43 1   
    38    21    22 2   
    39    21    23 2   
    40    21    24 1   
    41    24    25 ar  
    42    24    29 ar  
    43    25    26 ar  
    44    25    44 1   
    45    26    27 ar  
    46    26    46 1   
    47    27    28 ar  
    48    27    47 1   
    49    28    29 ar  
    50    28    48 1   
    51    29    45 1   
@<TRIPOS>SUBSTRUCTURE
     1 DH5         1 TEMP              0 ****  ****    0 ROOT
