@<TRIPOS>MOLECULE
molecule
   21    21     1     0     0
SMALL
bcc


@<TRIPOS>ATOM
      1 C1           0.0000     0.0000     0.0000 c          1 DH6       0.498300
      2 N1           1.3480     0.0000     0.0000 nz         1 DH6      -0.674400
      3 O1          -0.6090     0.0000     1.0540 o          1 DH6      -0.448100
      4 C2          -0.7320     0.0080    -1.2680 ce         1 DH6      -0.378200
      5 C3          -2.0800     0.0080    -1.2680 cf         1 DH6       0.132800
      6 C4          -2.8170     0.0150    -2.5430 ca         1 DH6      -0.147800
      7 C5          -4.2140     0.0150    -2.5470 ca         1 DH6      -0.072000
      8 C6          -4.8970     0.0230    -3.7450 ca         1 DH6      -0.130000
      9 C7          -4.2010     0.0300    -4.9420 ca         1 DH6      -0.062000
     10 C8          -2.8170     0.0300    -4.9460 ca         1 DH6      -0.130000
     11 C9          -2.1200     0.0280    -3.7560 ca         1 DH6      -0.072000
     12 HN1          1.6820     0.8220    -0.4640 hn         1 DH6       0.475133
     13 HN1A         1.6820    -0.0090     0.9440 hn         1 DH6       0.475133
     14 H2          -0.1910     0.0140    -2.2060 ha         1 DH6       0.158000
     15 H3          -2.6220     0.0020    -0.3300 ha         1 DH6       0.166000
     16 H5          -4.7600     0.0100    -1.6110 ha         1 DH6       0.136000
     17 H6          -5.9800     0.0230    -3.7490 ha         1 DH6       0.154000
     18 H7          -4.7430     0.0340    -5.8800 ha         1 DH6       0.155000
     19 H8          -2.2800     0.0380    -5.8860 ha         1 DH6       0.154000
     20 H9          -1.0370     0.0280    -3.7610 ha         1 DH6       0.136000
     21 H13          1.6820    -0.8130    -0.4790 hn         1 DH6       0.475133
@<TRIPOS>BOND
     1     1     2 1
     2     1     3 2
     3     1     4 1
     4     4     5 2
     5     5     6 1
     6     6     7 ar
     7     6    11 ar
     8     7     8 ar
     9     8     9 ar
    10     9    10 ar
    11    10    11 ar
    12     2    12 1
    13     2    13 1
    14     4    14 1
    15     5    15 1
    16     7    16 1
    17     8    17 1
    18     9    18 1
    19    10    19 1
    20    11    20 1
    21    21     2 1
@<TRIPOS>SUBSTRUCTURE
     1 DH6         1 TEMP              0 ****  ****    0 ROOT
