@<TRIPOS>MOLECULE
DH6
   21    23     1     0     0
SMALL
bcc


@<TRIPOS>ATOM
      1 C1           0.0000     0.0000     0.0000 c3         1 DH6       0.166000
      2 N1           1.3480     0.0000     0.0000 nz         1 DH6       0.807000
      3 O1          -0.6090     0.0000     1.0540 o          1 DH6      -0.311000
      4 C2          -0.7320     0.0080    -1.2680 c2         1 DH6      -0.209000
      5 C3          -2.0800     0.0080    -1.2680 c2         1 DH6       0.066000
      6 C4          -2.8170     0.0150    -2.5430 c3         1 DH6      -0.133000
      7 C5          -4.2140     0.0150    -2.5470 c2         1 DH6      -0.065500
      8 C6          -4.8970     0.0230    -3.7450 c2         1 DH6      -0.087000
      9 C7          -4.2010     0.0300    -4.9420 c2         1 DH6      -0.030000
     10 C8          -2.8170     0.0300    -4.9460 c2         1 DH6      -0.087000
     11 C9          -2.1200     0.0280    -3.7560 c2         1 DH6      -0.065500
     12 HN1          1.6820    -0.7250    -0.6030 hn         1 DH6       0.040667
     13 HN1A         1.6820    -0.1600     0.9300 hn         1 DH6       0.040667
     14 H2          -0.5860     0.8790    -0.6400 DU         1 DH6       0.003000
     15 H3          -2.2270     0.8870    -1.8840 DU         1 DH6       0.204000
     16 H5          -4.7600     0.0100    -1.6110 ha         1 DH6       0.124000
     17 H6          -5.9800     0.0230    -3.7490 ha         1 DH6       0.126500
     18 H7          -4.7430     0.0340    -5.8800 ha         1 DH6       0.122000
     19 H8          -2.2800     0.0380    -5.8860 ha         1 DH6       0.126500
     20 H9          -1.0370     0.0280    -3.7610 ha         1 DH6       0.124000
     21 H13          1.6820     0.8850    -0.3270 hn         1 DH6       0.040667
@<TRIPOS>BOND
     1     1     2 1   
     2     1     3 1   
     3     1     4 1   
     4     1    14 1   
     5     2    12 1   
     6     2    13 1   
     7     2    21 1   
     8     4     5 1   
     9     4    14 1   
    10     5     6 1   
    11     5    15 1   
    12     6     7 1   
    13     6    11 1   
    14     6    15 1   
    15     7     8 1   
    16     7    16 1   
    17     8     9 1   
    18     8    17 1   
    19     9    10 1   
    20     9    18 1   
    21    10    11 1   
    22    10    19 1   
    23    11    20 1   
@<TRIPOS>SUBSTRUCTURE
     1 DH6         1 TEMP              0 ****  ****    0 ROOT
