@<TRIPOS>MOLECULE
DH7
   76    77     1     0     0
SMALL
bcc


@<TRIPOS>ATOM
      1 C1         -0.5290   -0.2770   -0.8880 c3        1 DH7     -0.071400
      2 C2          2.6670    0.8270    1.0080 c3        1 DH7     -0.048200
      3 C3          5.3350    1.1690    2.2230 c3        1 DH7     -0.057400
      4 C4         -2.8180    3.2420   -5.8770 c3        1 DH7     -0.050900
      5 C5         -4.2260   -3.5250   -3.1980 c3        1 DH7     -0.051900
      6 C6          2.3570    0.0060   -6.2640 c3        1 DH7     -0.056900
      7 C7          0.1250   -3.2210    0.4110 c3        1 DH7     -0.087100
      8 C8         -3.0580   -0.3470   -6.2800 ce        1 DH7     -0.138100
      9 C9         -2.3930   -1.2710   -5.3650 ce        1 DH7     -0.139100
     10 C10        -2.6600    0.8780   -6.4730 c1        1 DH7     -0.034800
     11 C11        -2.9290   -1.7610   -4.2840 c1        1 DH7     -0.036800
     12 C12         1.6160    0.7940   -1.7300 c3        1 DH7     -0.068400
     13 C13         2.8690    1.1810    2.4330 c2        1 DH7     -0.175200
     14 C14         0.6520    1.8180   -6.0680 c2        1 DH7     -0.166200
     15 C15        -0.7640   -1.6880   -1.4230 c3        1 DH7     -0.065700
     16 C16         1.2800    0.4410   -3.1630 c3        1 DH7     -0.078400
     17 C17         1.2200    0.4890    0.7100 c3        1 DH7     -0.068400
     18 C18         0.0920    1.6510   -7.4290 c3        1 DH7     -0.041200
     19 C19        -2.1230   -2.2450   -1.0550 c3        1 DH7     -0.065400
     20 C20        -1.1790    2.4560   -7.6350 c3        1 DH7     -0.033200
     21 C21        -3.2500   -1.6160   -1.8570 c3        1 DH7     -0.038200
     22 C22         2.0800    1.3000   -4.1290 c3        1 DH7     -0.043200
     23 C23         1.5740   -1.5390   -0.7510 c3        1 DH7     -0.074400
     24 C24         0.9890   -0.1180   -0.6770 c3        1 DH7     -0.046000
     25 C25         4.0790    1.3440    2.9910 c2        1 DH7     -0.126400
     26 C26        -2.2480    2.1070   -6.6490 c2        1 DH7     -0.123500
     27 C27        -3.4320   -2.2690   -3.1900 c2        1 DH7     -0.124500
     28 C28         1.6390    1.0780   -5.5380 c2        1 DH7     -0.124400
     29 C29         0.4120   -2.5260   -0.9010 c3        1 DH7     -0.061700
     30 H1         -1.0690   -0.1460    0.0850 hc        1 DH7      0.043700
     31 H2         -0.9250    0.4940   -1.5920 hc        1 DH7      0.043700
     32 H3          0.6740   -3.3080   -1.6630 hc        1 DH7      0.045700
     33 H4          3.3280   -0.0410    0.7370 hc        1 DH7      0.048700
     34 H5          2.9930    1.6940    0.3690 hc        1 DH7      0.048700
     35 H6          0.8440   -0.2380    1.4790 hc        1 DH7      0.041700
     36 H7          5.2960    1.7520    1.2690 hc        1 DH7      0.039867
     37 H8          6.2220    1.5100    2.8110 hc        1 DH7      0.039867
     38 H9          5.4790    0.0900    1.9610 hc        1 DH7      0.039867
     39 H10        -3.6280    2.9050   -5.1870 hc        1 DH7      0.044033
     40 H11        -2.0130    3.7280   -5.2710 hc        1 DH7      0.044033
     41 H12        -3.2410    4.0040   -6.5790 hc        1 DH7      0.044033
     42 H13        -4.2270   -4.0050   -4.2070 hc        1 DH7      0.043700
     43 H14        -3.8030   -4.2510   -2.4590 hc        1 DH7      0.043700
     44 H15        -5.2840   -3.3050   -2.9090 hc        1 DH7      0.043700
     45 H16         3.4110    0.3230   -6.4640 hc        1 DH7      0.040033
     46 H17         2.3850   -0.9260   -5.6440 hc        1 DH7      0.040033
     47 H18         1.8720   -0.2340   -7.2420 hc        1 DH7      0.040033
     48 H19         1.0440   -3.7370    0.7810 hc        1 DH7      0.033033
     49 H20        -0.2010   -2.4820    1.1820 hc        1 DH7      0.033033
     50 H21        -0.6780   -3.9870    0.2890 hc        1 DH7      0.033033
     51 H22        -3.9230   -0.7580   -6.8330 ha        1 DH7      0.143000
     52 H23        -1.3620   -1.5530   -5.6520 ha        1 DH7      0.144000
     53 H24         2.7320    0.7620   -1.6060 hc        1 DH7      0.038700
     54 H25         1.9540    1.3170    3.0330 ha        1 DH7      0.122000
     55 H26         0.1780    2.6090   -5.4600 ha        1 DH7      0.122000
     56 H27        -0.6910   -1.6550   -2.5480 hc        1 DH7      0.056700
     57 H28         1.4970   -0.6420   -3.3590 hc        1 DH7      0.047200
     58 H29         0.1850    0.5950   -3.3550 hc        1 DH7      0.047200
     59 H30         0.6030    1.4230    0.8010 hc        1 DH7      0.041700
     60 H31         1.2870    1.8490   -1.5300 hc        1 DH7      0.038700
     61 H32         0.8530    1.9730   -8.1920 hc        1 DH7      0.050200
     62 H33        -0.1300    0.5650   -7.6180 hc        1 DH7      0.050200
     63 H34        -2.1240   -3.3550   -1.2250 hc        1 DH7      0.042700
     64 H35        -2.3160   -2.0750    0.0370 hc        1 DH7      0.042700
     65 H36        -0.9430    3.5510   -7.5540 hc        1 DH7      0.048200
     66 H37        -1.5620    2.2720   -8.6750 hc        1 DH7      0.048200
     67 H38        -4.2090   -1.7180   -1.2800 hc        1 DH7      0.050200
     68 H39        -3.0500   -0.5190   -1.9860 hc        1 DH7      0.050200
     69 H40         1.9540    2.3810   -3.8520 hc        1 DH7      0.042200
     70 H41         3.1710    1.0570   -4.0300 hc        1 DH7      0.042200
     71 H42         2.2650   -1.6320   -1.6260 hc        1 DH7      0.044200
     72 H43         2.1710   -1.7720    0.1670 hc        1 DH7      0.044200
     73 C30         4.2390    1.7070    4.4200 c3        1 DH7     -0.057400
     74 H44         4.7590    2.6930    4.5090 hc        1 DH7      0.039867
     75 H45         3.2530    1.7800    4.9410 hc        1 DH7      0.039867
     76 H46         4.8590    0.9370    4.9440 hc        1 DH7      0.039867
@<TRIPOS>BOND
     1    1   15 1   
     2    1   24 1   
     3    1   30 1   
     4    1   31 1   
     5    2   13 1   
     6    2   17 1   
     7    2   33 1   
     8    2   34 1   
     9    3   25 1   
    10    3   36 1   
    11    3   37 1   
    12    3   38 1   
    13    4   26 1   
    14    4   39 1   
    15    4   40 1   
    16    4   41 1   
    17    5   27 1   
    18    5   42 1   
    19    5   43 1   
    20    5   44 1   
    21    6   28 1   
    22    6   45 1   
    23    6   46 1   
    24    6   47 1   
    25    7   29 1   
    26    7   48 1   
    27    7   49 1   
    28    7   50 1   
    29    8    9 1   
    30    8   10 2   
    31    8   51 1   
    32    9   11 2   
    33    9   52 1   
    34   10   26 2   
    35   11   27 2   
    36   12   16 1   
    37   12   24 1   
    38   12   53 1   
    39   12   60 1   
    40   13   25 2   
    41   13   54 1   
    42   14   18 1   
    43   14   28 2   
    44   14   55 1   
    45   15   19 1   
    46   15   29 1   
    47   15   56 1   
    48   16   22 1   
    49   16   57 1   
    50   16   58 1   
    51   17   24 1   
    52   17   35 1   
    53   17   59 1   
    54   18   20 1   
    55   18   61 1   
    56   18   62 1   
    57   19   21 1   
    58   19   63 1   
    59   19   64 1   
    60   20   26 1   
    61   20   65 1   
    62   20   66 1   
    63   21   27 1   
    64   21   67 1   
    65   21   68 1   
    66   22   28 1   
    67   22   69 1   
    68   22   70 1   
    69   23   24 1   
    70   23   29 1   
    71   23   71 1   
    72   23   72 1   
    73   25   73 1   
    74   29   32 1   
    75   73   74 1   
    76   73   75 1   
    77   73   76 1   
@<TRIPOS>SUBSTRUCTURE
     1 DH7         1 TEMP              0 ****  ****    0 ROOT
