@<TRIPOS>MOLECULE
molecule
   76    75     1     0     0
SMALL
bcc


@<TRIPOS>ATOM
      1 C1           0.0000     0.0000     0.0000 c3         1 DH7      -0.161650
      2 C2           2.2590     0.0000     1.3050 c3         1 DH7      -0.161650
      3 C3         -14.3980    -4.3080   -11.8250 c3         1 DH7      -0.161650
      4 C4          -3.6500     2.6330    -7.4960 c3         1 DH7      -0.021400
      5 C5           0.9350     0.4060   -11.1290 c3         1 DH7      -0.021400
      6 C6           1.6070     0.3420    -5.7520 c3         1 DH7      -0.123900
      7 C7         -12.0680     1.7660    -8.9790 c3         1 DH7      -0.123900
      8 C8          -3.5010    -0.9410    -7.9810 ce         1 DH7      -0.071600
      9 C9          -1.8130    -1.6960    -8.3520 ce         1 DH7      -0.071600
     10 C10         -3.2720     0.2240    -7.4360 c1         1 DH7      -0.108300
     11 C11         -1.4620    -0.9560    -9.2080 c1         1 DH7      -0.108300
     12 C12          2.1610    -0.0000    -1.1340 c2         1 DH7      -0.150200
     13 C13        -11.0550    -1.3370   -11.7970 c2         1 DH7      -0.150200
     14 C14          0.0380     1.9100    -4.7330 c2         1 DH7      -0.158200
     15 C15         -8.6800     0.3610    -8.4430 c2         1 DH7      -0.158200
     16 C16          1.4090    -0.0000    -2.4390 c3         1 DH7      -0.241700
     17 C17         -9.2840    -0.8650   -11.4150 c3         1 DH7      -0.241700
     18 C18         -0.7880     1.8120    -5.9900 c3         1 DH7      -0.153700
     19 C19         -5.6390    -0.8280    -9.5940 c3         1 DH7      -0.153700
     20 C20         -2.2380     1.4870    -5.6240 c3         1 DH7       0.005800
     21 C21         -3.2550     1.2800    -9.6100 c3         1 DH7       0.005800
     22 C22          1.8710     1.1800    -3.2950 c3         1 DH7      -0.135200
     23 C23         -9.6330     0.8920   -11.0830 c3         1 DH7      -0.135200
     24 C24          1.5070     0.0000     0.0000 c2         1 DH7       0.158600
     25 C25        -12.4220    -3.7170   -10.6770 c2         1 DH7       0.158600
     26 C26         -3.0630     1.3890    -6.8800 c2         1 DH7      -0.101500
     27 C27         -1.3370     0.0630    -9.6170 c2         1 DH7      -0.101500
     28 C28          1.1180     1.1810    -4.6000 c2         1 DH7      -0.066400
     29 C29         -9.7340     0.9420    -9.5680 c2         1 DH7      -0.066400
     30 H1          -0.3610    -1.0210     0.0110 hc         1 DH7       0.036700
     31 H2          -0.3610     0.5010    -0.8900 hc         1 DH7       0.036700
     32 H3          -0.3610     0.5210     0.8790 hc         1 DH7       0.036700
     33 H4           1.6310    -0.4160     2.0840 hc         1 DH7       0.036700
     34 H5           2.5320     1.0160     1.5650 hc         1 DH7       0.036700
     35 H6           3.1560    -0.6000     1.2060 hc         1 DH7       0.036700
     36 H7         -15.2080    -4.4210   -11.1150 hc         1 DH7       0.036700
     37 H8         -14.6480    -3.5310   -12.5380 hc         1 DH7       0.036700
     38 H9         -14.2440    -5.2430   -12.3500 hc         1 DH7       0.036700
     39 H10         -2.9710     3.0180    -8.2480 hc         1 DH7       0.048033
     40 H11         -4.6010     2.3940    -7.9570 hc         1 DH7       0.048033
     41 H12         -3.7980     3.3810    -6.7270 hc         1 DH7       0.048033
     42 H13          1.7710     0.6330   -10.4780 hc         1 DH7       0.048033
     43 H14          1.1430    -0.5040   -11.6790 hc         1 DH7       0.048033
     44 H15          0.7860     1.2230   -11.8250 hc         1 DH7       0.048033
     45 H16          2.1370     0.9700    -6.4570 hc         1 DH7       0.054033
     46 H17          0.7610    -0.1220    -6.2460 hc         1 DH7       0.054033
     47 H18          2.2740    -0.4270    -5.3810 hc         1 DH7       0.054033
     48 H19        -12.4580     1.1870    -8.1510 hc         1 DH7       0.054033
     49 H20        -12.7190     1.6520    -9.8380 hc         1 DH7       0.054033
     50 H21        -12.0220     2.8120    -8.6990 hc         1 DH7       0.054033
     51 H22         -4.4130    -1.5010    -7.8150 ha         1 DH7       0.180500
     52 H23         -1.6840    -1.3790    -7.3240 ha         1 DH7       0.180500
     53 H24          1.9380    -0.8120    -0.4520 ha         1 DH7       0.092500
     54 H25        -11.5120    -0.8480   -12.6490 ha         1 DH7       0.092500
     55 H26          1.0390     2.3170    -4.8050 ha         1 DH7       0.165000
     56 H27         -8.9510     0.3100    -7.3960 ha         1 DH7       0.165000
     57 H28          1.7490     0.8540    -3.0120 hc         1 DH7       0.079950
     58 H29          1.6930    -0.8950    -2.9800 hc         1 DH7       0.079950
     59 H30         -8.6370    -0.9930   -12.2740 hc         1 DH7       0.079950
     60 H31         -8.9100    -1.3770   -10.5360 hc         1 DH7       0.079950
     61 H32         -0.6980     2.7350    -6.5490 hc         1 DH7       0.054950
     62 H33         -1.8270     1.6570    -5.7230 hc         1 DH7       0.054950
     63 H34         -5.7780    -1.1880   -10.6060 hc         1 DH7       0.054950
     64 H35         -5.3460    -1.6650    -8.9730 hc         1 DH7       0.054950
     65 H36         -2.7450     2.3890    -5.3020 hc         1 DH7       0.033700
     66 H37         -2.2590     0.7510    -4.8290 hc         1 DH7       0.033700
     67 H38         -3.3000     1.9000    -8.7220 hc         1 DH7       0.033700
     68 H39         -3.3090     1.8960   -10.4990 hc         1 DH7       0.033700
     69 H40          2.9540     1.2070    -3.2900 hc         1 DH7       0.094450
     70 H41          1.5340     1.0210    -4.3120 hc         1 DH7       0.094450
     71 H42        -10.5700     1.1880   -11.5390 hc         1 DH7       0.094450
     72 H43         -8.8210     1.5160   -11.4330 hc         1 DH7       0.094450
     73 C30        -10.7320    -5.3060    -8.8850 c3         1 DH7      -0.161650
     74 H44         -9.7480    -5.4190    -9.3230 hc         1 DH7       0.036700
     75 H45        -10.6460    -4.8030    -7.9300 hc         1 DH7       0.036700
     76 H46        -11.1780    -6.2830    -8.7410 hc         1 DH7       0.036700
@<TRIPOS>BOND
     1     1    24 1
     2     1    30 1
     3     1    31 1
     4     1    32 1
     5     2    24 1
     6     2    33 1
     7     2    34 1
     8     2    35 1
     9     3    25 1
    10     3    36 1
    11     3    37 1
    12     3    38 1
    13     4    26 1
    14     4    39 1
    15     4    40 1
    16     4    41 1
    17     5    27 1
    18     5    42 1
    19     5    43 1
    20     5    44 1
    21     6    28 1
    22     6    45 1
    23     6    46 1
    24     6    47 1
    25     7    29 1
    26     7    48 1
    27     7    49 1
    28     7    50 1
    29     8     9 1
    30     8    10 2
    31     8    51 1
    32     9    11 2
    33     9    52 1
    34    10    26 2
    35    11    27 2
    36    12    16 1
    37    12    24 2
    38    12    53 1
    39    13    17 1
    40    13    25 2
    41    13    54 1
    42    14    18 1
    43    14    28 2
    44    14    55 1
    45    15    19 1
    46    15    29 2
    47    15    56 1
    48    16    22 1
    49    16    57 1
    50    16    58 1
    51    17    23 1
    52    17    59 1
    53    17    60 1
    54    18    20 1
    55    18    61 1
    56    18    62 1
    57    19    21 1
    58    19    63 1
    59    19    64 1
    60    20    26 1
    61    20    65 1
    62    20    66 1
    63    21    27 1
    64    21    67 1
    65    21    68 1
    66    22    28 1
    67    22    69 1
    68    22    70 1
    69    23    29 1
    70    23    71 1
    71    23    72 1
    72    25    73 1
    73    73    74 1
    74    73    75 1
    75    73    76 1
@<TRIPOS>SUBSTRUCTURE
     1 DH7         1 TEMP              0 ****  ****    0 ROOT
