@<TRIPOS>MOLECULE
DH9
   90    89     1     0     0
SMALL
bcc


@<TRIPOS>ATOM
      1 C22          0.0000     0.0000     0.0000 c3         1 DH9       0.005900
      2 C21          1.5290     0.0000     0.0000 c3         1 DH9      -0.031400
      3 C20          2.0400     0.0000     1.4420 c3         1 DH9      -0.031400
      4 C19          3.5700    -0.0000     1.4430 c3         1 DH9      -0.027400
      5 C18          4.0800    -0.0000     2.8850 c3         1 DH9      -0.055400
      6 C17          5.6100    -0.0000     2.8840 c3         1 DH9      -0.004400
      7 C2'          6.1200     0.0000     4.3270 c3         1 DH9      -0.202700
      8 C1'          5.7210     1.2880     5.0000 c          1 DH9       0.995600
      9 O1'          5.0940     2.1210     4.3890 o          1 DH9      -0.894800
     10 O2'          6.0650     1.5120     6.2790 o          1 DH9      -0.894800
     11 C3'          7.6450    -0.1260     4.3290 c3         1 DH9       0.226100
     12 O3'          8.2200     1.0340     3.7240 oh         1 DH9      -0.616800
     13 C4'          8.1450    -0.2500     5.7690 c3         1 DH9      -0.101400
     14 C5'          9.6540    -0.5020     5.7660 c3         1 DH9       0.188100
     15 O4'         10.3360     0.6590     5.2210 os         1 DH9      -0.394900
     16 C23         10.5420     0.6780     3.8960 c          1 DH9       0.704100
     17 O5'         10.1640    -0.2440     3.2120 o          1 DH9      -0.574000
     18 C24         11.2440     1.8510     3.2590 c3         1 DH9      -0.015300
     19 C26         10.2540     3.0030     3.0830 c3         1 DH9      -0.056400
     20 C27         10.9840     4.2200     2.5100 c3         1 DH9      -0.056700
     21 C28          9.9710     5.3230     2.1990 c3         1 DH9       0.002900
     22 C29         12.0000     4.7340     3.5330 c3         1 DH9       0.002900
     23 N1'         11.7680     1.4530     1.9500 ns         1 DH9      -0.219900
     24 C25         10.9270     1.0180     0.9910 c          1 DH9       0.613900
     25 O6'          9.7360     0.9550     1.2120 o          1 DH9      -0.597100
     26 C6'         10.1330    -0.7500     7.1970 c3         1 DH9      -0.037400
     27 C7'         11.6170    -1.1230     7.1810 c3         1 DH9      -0.034400
     28 C8'         12.0950    -1.3720     8.6130 c3         1 DH9      -0.029400
     29 C9'         13.5790    -1.7460     8.5970 c3         1 DH9      -0.029400
     30 C10         14.0590    -1.9950    10.0270 c3         1 DH9      -0.030400
     31 C11         15.5420    -2.3680    10.0110 c3         1 DH9      -0.029400
     32 C12         16.0210    -2.6170    11.4440 c3         1 DH9      -0.029400
     33 C13         17.5050    -2.9900    11.4270 c3         1 DH9      -0.029400
     34 C14         17.9840    -3.2390    12.8590 c3         1 DH9      -0.030400
     35 C15         19.4670    -3.6120    12.8420 c3         1 DH9      -0.028400
     36 C16         19.9470    -3.8600    14.2740 c3         1 DH9       0.005900
     37 H221        -0.3610    -0.8830     0.5130 hc         1 DH9      -0.005633
     38 H222        -0.3610     0.8860     0.5080 hc         1 DH9      -0.005633
     39 H223        -0.3610    -0.0030    -1.0210 hc         1 DH9      -0.005633
     40 H211         1.8900    -0.8840    -0.5110 hc         1 DH9       0.007700
     41 H212         1.8900     0.8840    -0.5110 hc         1 DH9       0.007700
     42 H201         1.6790    -0.8840     1.9530 hc         1 DH9       0.014700
     43 H202         1.6790     0.8850     1.9530 hc         1 DH9       0.014700
     44 H191         3.9310    -0.8850     0.9320 hc         1 DH9       0.006200
     45 H192         3.9310     0.8840     0.9320 hc         1 DH9       0.006200
     46 H181         3.7190    -0.8840     3.3960 hc         1 DH9       0.038200
     47 H182         3.7190     0.8850     3.3950 hc         1 DH9       0.038200
     48 H171         5.9710    -0.8850     2.3740 hc         1 DH9       0.004200
     49 H172         5.9720     0.8840     2.3730 hc         1 DH9       0.004200
     50 H2'          5.6870    -0.8360     4.8630 hc         1 DH9       0.027700
     51 H3'          7.9350    -1.0070     3.7690 h1         1 DH9      -0.004300
     52 HO3'         7.7320     1.2600     2.9490 ho         1 DH9       0.411000
     53 H4'1         7.6420    -1.0770     6.2560 hc         1 DH9       0.069700
     54 H4'2         7.9330     0.6670     6.3050 hc         1 DH9       0.069700
     55 H5'          9.8740    -1.3690     5.1560 h1         1 DH9       0.021700
     56 H24         12.0620     2.1700     3.8940 h1         1 DH9       0.033700
     57 H261         9.4660     2.7020     2.4040 hc         1 DH9       0.068700
     58 H262         9.8250     3.2600     4.0440 hc         1 DH9       0.068700
     59 H27         11.5000     3.9360     1.6010 hc         1 DH9       0.012700
     60 H281        10.4910     6.1920     1.8130 hc         1 DH9       0.002200
     61 H282         9.4410     5.5920     3.1050 hc         1 DH9       0.002200
     62 H283         9.2650     4.9670     1.4600 hc         1 DH9       0.002200
     63 H291        12.3260     5.7270     3.2500 hc         1 DH9       0.002200
     64 H292        12.8530     4.0670     3.5600 hc         1 DH9       0.002200
     65 H293        11.5390     4.7700     4.5130 hc         1 DH9       0.002200
     66 HN1'        12.7550     1.4610     1.7830 hn         1 DH9       0.159500
     67 H25         11.3180     0.6870     0.0360 h5         1 DH9      -0.036800
     68 H6'1         9.9940     0.1490     7.7860 hc         1 DH9       0.027200
     69 H6'2         9.5620    -1.5600     7.6340 hc         1 DH9       0.027200
     70 H7'1        11.7560    -2.0220     6.5920 hc         1 DH9       0.014200
     71 H7'2        12.1880    -0.3130     6.7450 hc         1 DH9       0.014200
     72 H8'1        11.5230    -2.1820     9.0490 hc         1 DH9       0.014200
     73 H8'2        11.9550    -0.4740     9.2010 hc         1 DH9       0.014200
     74 H9'1        13.7190    -2.6440     8.0080 hc         1 DH9       0.012200
     75 H9'2        14.1510    -0.9360     8.1610 hc         1 DH9       0.012200
     76 H101        13.4870    -2.8050    10.4640 hc         1 DH9       0.014200
     77 H102        13.9190    -1.0960    10.6160 hc         1 DH9       0.014200
     78 H111        16.1140    -1.5580     9.5750 hc         1 DH9       0.013200
     79 H112        15.6820    -3.2660     9.4220 hc         1 DH9       0.013200
     80 H121        15.4500    -3.4280    11.8800 hc         1 DH9       0.014200
     81 H122        15.8810    -1.7190    12.0330 hc         1 DH9       0.014200
     82 H131        18.0760    -2.1790    10.9910 hc         1 DH9       0.013700
     83 H132        17.6450    -3.8880    10.8380 hc         1 DH9       0.013700
     84 H141        17.8440    -2.3400    13.4470 hc         1 DH9       0.014700
     85 H142        17.4120    -4.0490    13.2950 hc         1 DH9       0.014700
     86 H151        19.6070    -4.5110    12.2540 hc         1 DH9       0.011700
     87 H152        20.0380    -2.8020    12.4050 hc         1 DH9       0.011700
     88 H161        20.9980    -4.1240    14.2620 hc         1 DH9      -0.001300
     89 H162        19.8070    -2.9620    14.8630 hc         1 DH9      -0.001300
     90 H163        19.3760    -4.6710    14.7110 hc         1 DH9      -0.001300
@<TRIPOS>BOND
     1     1     2 1   
     2     1    37 1   
     3     1    38 1   
     4     1    39 1   
     5     2     3 1   
     6     2    40 1   
     7     2    41 1   
     8     3     4 1   
     9     3    42 1   
    10     3    43 1   
    11     4     5 1   
    12     4    44 1   
    13     4    45 1   
    14     5     6 1   
    15     5    46 1   
    16     5    47 1   
    17     6     7 1   
    18     6    48 1   
    19     6    49 1   
    20     7     8 1   
    21     7    11 1   
    22     7    50 1   
    23     8     9 1   
    24     8    10 1   
    25    11    12 1   
    26    11    13 1   
    27    11    51 1   
    28    12    52 1   
    29    13    14 1   
    30    13    53 1   
    31    13    54 1   
    32    14    15 1   
    33    14    26 1   
    34    14    55 1   
    35    15    16 1   
    36    16    17 2   
    37    16    18 1   
    38    18    19 1   
    39    18    23 1   
    40    18    56 1   
    41    19    20 1   
    42    19    57 1   
    43    19    58 1   
    44    20    21 1   
    45    20    22 1   
    46    20    59 1   
    47    21    60 1   
    48    21    61 1   
    49    21    62 1   
    50    22    63 1   
    51    22    64 1   
    52    22    65 1   
    53    23    24 1   
    54    23    66 1   
    55    24    25 2   
    56    24    67 1   
    57    26    27 1   
    58    26    68 1   
    59    26    69 1   
    60    27    28 1   
    61    27    70 1   
    62    27    71 1   
    63    28    29 1   
    64    28    72 1   
    65    28    73 1   
    66    29    30 1   
    67    29    74 1   
    68    29    75 1   
    69    30    31 1   
    70    30    76 1   
    71    30    77 1   
    72    31    32 1   
    73    31    78 1   
    74    31    79 1   
    75    32    33 1   
    76    32    80 1   
    77    32    81 1   
    78    33    34 1   
    79    33    82 1   
    80    33    83 1   
    81    34    35 1   
    82    34    84 1   
    83    34    85 1   
    84    35    36 1   
    85    35    86 1   
    86    35    87 1   
    87    36    88 1   
    88    36    89 1   
    89    36    90 1   
@<TRIPOS>SUBSTRUCTURE
     1 DH9         1 TEMP              0 ****  ****    0 ROOT
