@<TRIPOS>MOLECULE
DHB
   16    16     1     0     0
SMALL
bcc


@<TRIPOS>ATOM
      1 C1         -0.0300    0.0380    0.0230 ca        1 DHB     -0.122600
      2 C2          1.3560    0.1850    0.0810 ca        1 DHB     -0.144000
      3 C3          2.0010    0.2210    1.3210 ca        1 DHB      0.004100
      4 O3          3.3750    0.3650    1.4540 oh        1 DHB     -0.544100
      5 C4          1.2600    0.1100    2.5120 ca        1 DHB      0.073100
      6 O4          1.8490    0.1390    3.7630 oh        1 DHB     -0.521100
      7 C5         -0.1320   -0.0380    2.4510 ca        1 DHB     -0.162000
      8 C6         -0.7630   -0.0730    1.2110 ca        1 DHB     -0.106000
      9 C          -0.7310   -0.0020   -1.3280 c         1 DHB      0.910200
     10 O1         -0.0150    0.1020   -2.3650 o         1 DHB     -0.830800
     11 O2         -1.9860   -0.1350   -1.3400 o         1 DHB     -0.830800
     12 H2          1.9190    0.2710   -0.8620 ha        1 DHB      0.156000
     13 HO3         3.7360    0.4280    0.5590 ho        1 DHB      0.419000
     14 HO4         2.8010    0.2450    3.6280 ho        1 DHB      0.418000
     15 H5         -0.7020   -0.1250    3.3850 ha        1 DHB      0.126000
     16 H6         -1.8570   -0.1880    1.1350 ha        1 DHB      0.155000
@<TRIPOS>BOND
     1    1    2 ar  
     2    1    8 ar  
     3    1    9 1   
     4    2    3 ar  
     5    2   12 1   
     6    3    4 1   
     7    3    5 ar  
     8    4   13 1   
     9    5    6 1   
    10    5    7 ar  
    11    6   14 1   
    12    7    8 ar  
    13    7   15 1   
    14    8   16 1   
    15    9   10 1   
    16    9   11 1   
@<TRIPOS>SUBSTRUCTURE
     1 DHB         1 TEMP              0 ****  ****    0 ROOT
