@<TRIPOS>MOLECULE
molecule
   16    16     1     0     0
SMALL
bcc


@<TRIPOS>ATOM
      1 C1           0.0000     0.0000     0.0000 ca         1 DHB      -0.096600
      2 C2           1.3970     0.0000     0.0000 ca         1 DHB      -0.131000
      3 C3           2.0840     0.0000     1.1980 ca         1 DHB       0.054100
      4 O3           3.4440     0.0050     1.2020 oh         1 DHB      -0.527100
      5 C4           1.3850    -0.0100     2.4030 ca         1 DHB       0.054100
      6 O4           2.0620    -0.0150     3.5800 oh         1 DHB      -0.527100
      7 C5          -0.0040    -0.0150     2.4030 ca         1 DHB      -0.185000
      8 C6          -0.6960    -0.0100     1.2120 ca         1 DHB      -0.092000
      9 C           -0.7390     0.0060    -1.2760 c          1 DHB       0.882200
     10 O1          -0.1330     0.0150    -2.3290 o          1 DHB      -0.835300
     11 O2          -2.0860     0.0010    -1.2740 o          1 DHB      -0.835300
     12 H2           1.9400     0.0080    -0.9370 ha         1 DHB       0.156000
     13 HO3          3.7560     0.8540     0.9340 ho         1 DHB       0.406000
     14 HO4          2.0190    -0.8750     3.9630 ho         1 DHB       0.402000
     15 H5          -0.5450    -0.0230     3.3420 ha         1 DHB       0.116000
     16 H6          -1.7790    -0.0120     1.2150 ha         1 DHB       0.158000
@<TRIPOS>BOND
     1     1     2 ar
     2     1     8 ar
     3     1     9 1
     4     2     3 ar
     5     2    12 1
     6     3     4 1
     7     3     5 ar
     8     4    13 1
     9     5     6 1
    10     5     7 ar
    11     6    14 1
    12     7     8 ar
    13     7    15 1
    14     8    16 1
    15     9    10 1
    16     9    11 1
@<TRIPOS>SUBSTRUCTURE
     1 DHB         1 TEMP              0 ****  ****    0 ROOT
