@<TRIPOS>MOLECULE
molecule
   20    20     1     0     0
SMALL
bcc


@<TRIPOS>ATOM
      1 C1           0.0000     0.0000     0.0000 c          1 DHC       0.873800
      2 O1           1.2190     0.0000     0.0000 o          1 DHC      -0.833800
      3 C2          -0.8770     0.0000     1.1880 ce         1 DHC      -0.118200
      4 C3          -0.3390     0.0130     2.4280 cf         1 DHC      -0.215200
      5 C1'         -1.0930     0.0250     3.6710 ca         1 DHC       0.006200
      6 C2'         -0.4850     0.4490     4.8530 ca         1 DHC      -0.166000
      7 C3'         -1.2070     0.4580     6.0460 ca         1 DHC       0.084100
      8 C4'         -2.5390     0.0430     6.0570 ca         1 DHC       0.049100
      9 C5'         -3.1470    -0.3810     4.8760 ca         1 DHC      -0.152000
     10 C6'         -2.4250    -0.3900     3.6840 ca         1 DHC      -0.135000
     11 O4'         -3.2550     0.0460     7.2160 oh         1 DHC      -0.522100
     12 O3'         -0.6030     0.8740     7.1930 oh         1 DHC      -0.522100
     13 O2          -0.7740    -0.0020    -1.1110 o          1 DHC      -0.833800
     14 HC2         -1.9540    -0.0030     1.0660 ha         1 DHC       0.113000
     15 HC3          0.7410     0.0230     2.5110 ha         1 DHC       0.139000
     16 H2'          0.5470     0.7800     4.8420 ha         1 DHC       0.142000
     17 H5'         -4.1760    -0.7200     4.8880 ha         1 DHC       0.128000
     18 H6'         -2.8910    -0.7420     2.7710 ha         1 DHC       0.145000
     19 H4'         -3.8440     0.7820     7.2190 ho         1 DHC       0.407000
     20 H3'          0.0010     0.2140     7.4880 ho         1 DHC       0.412000
@<TRIPOS>BOND
     1     1     2 1
     2     1     3 1
     3     1    13 1
     4     3     4 2
     5     3    14 1
     6     4     5 1
     7     4    15 1
     8     5     6 ar
     9     5    10 ar
    10     6     7 ar
    11     6    16 1
    12     7     8 ar
    13     7    12 1
    14     8     9 ar
    15     8    11 1
    16     9    10 ar
    17     9    17 1
    18    10    18 1
    19    11    19 1
    20    12    20 1
@<TRIPOS>SUBSTRUCTURE
     1 DHC         1 TEMP              0 ****  ****    0 ROOT
