@<TRIPOS>MOLECULE
DHC
   20    20     1     0     0
SMALL
bcc


@<TRIPOS>ATOM
      1 C1         -1.1770    0.2370    0.4870 c         1 DHC      0.895800
      2 O1         -0.7500    1.3360    0.0360 o         1 DHC     -0.831300
      3 C2         -0.1980   -0.6270    1.2470 ce        1 DHC     -0.140200
      4 C3         -0.1120   -0.8700    2.5580 cf        1 DHC     -0.188200
      5 C1'        -0.9750   -0.3920    3.6240 ca        1 DHC     -0.000800
      6 C2'        -0.4490   -0.2950    4.9210 ca        1 DHC     -0.184000
      7 C3'        -1.2580    0.1360    5.9750 ca        1 DHC      0.014100
      8 C4'        -2.6040    0.4730    5.7510 ca        1 DHC      0.076100
      9 C5'        -3.1310    0.3720    4.4560 ca        1 DHC     -0.137000
     10 C6'        -2.3230   -0.0550    3.4090 ca        1 DHC     -0.110000
     11 O4'        -3.4470    0.8850    6.7630 oh        1 DHC     -0.512100
     12 O3'        -0.7970    0.2400    7.2800 oh        1 DHC     -0.536100
     13 O2         -2.3490   -0.2020    0.2910 o         1 DHC     -0.831300
     14 HC2         0.5560   -1.0790    0.5780 ha        1 DHC      0.098000
     15 HC3         0.7180   -1.5040    2.9260 ha        1 DHC      0.083000
     16 H2'         0.6040   -0.5480    5.1110 ha        1 DHC      0.120000
     17 H5'        -4.1830    0.6390    4.2830 ha        1 DHC      0.141000
     18 H6'        -2.7350   -0.1240    2.3800 ha        1 DHC      0.210000
     19 H4'        -2.9080    0.9940    7.5590 ho        1 DHC      0.419000
     20 H3'         0.1680    0.2420    7.2390 ho        1 DHC      0.414000
@<TRIPOS>BOND
     1    1    2 1   
     2    1    3 1   
     3    1   13 1   
     4    3    4 2   
     5    3   14 1   
     6    4    5 1   
     7    4   15 1   
     8    5    6 ar  
     9    5   10 ar  
    10    6    7 ar  
    11    6   16 1   
    12    7    8 ar  
    13    7   12 1   
    14    8    9 ar  
    15    8   11 1   
    16    9   10 ar  
    17    9   17 1   
    18   10   18 1   
    19   11   19 1   
    20   12   20 1   
@<TRIPOS>SUBSTRUCTURE
     1 DHC         1 TEMP              0 ****  ****    0 ROOT
