@<TRIPOS>MOLECULE
DHD
   13    12     1     0     0
SMALL
bcc


@<TRIPOS>ATOM
      1 C1          0.0130    0.0490    0.0430 c         1 DHD      0.841600
      2 C2          1.5330    0.1230   -0.1650 c         1 DHD      0.486100
      3 C3          2.3370   -0.0930    1.0860 c3        1 DHD     -0.288400
      4 C4          3.7460    0.4270    1.1520 c         1 DHD      0.486100
      5 C5          4.6280   -0.2750    2.1950 c         1 DHD      0.841600
      6 O11        -0.6010    1.1050    0.3610 o         1 DHD     -0.840300
      7 O12        -0.5450   -1.0760   -0.1030 o         1 DHD     -0.840300
      8 O51         5.2580   -1.3130    1.8460 o         1 DHD     -0.840300
      9 O52         4.6670    0.2180    3.3580 o         1 DHD     -0.840300
     10 O4          4.1580    1.3740    0.4710 o         1 DHD     -0.586100
     11 O2          2.0370    0.2920   -1.2820 o         1 DHD     -0.586100
     12 H31         1.7790    0.3730    1.9450 hc        1 DHD      0.082700
     13 H32         2.3660   -1.2040    1.2640 hc        1 DHD      0.082700
@<TRIPOS>BOND
     1    1    2 1   
     2    1    6 1   
     3    1    7 1   
     4    2    3 1   
     5    2   11 2   
     6    3    4 1   
     7    3   12 1   
     8    3   13 1   
     9    4    5 1   
    10    4   10 2   
    11    5    8 1   
    12    5    9 1   
@<TRIPOS>SUBSTRUCTURE
     1 DHD         1 TEMP              0 ****  ****    0 ROOT
