@<TRIPOS>MOLECULE
molecule
   13    12     1     0     0
SMALL
bcc


@<TRIPOS>ATOM
      1 C1           0.0000     0.0000     0.0000 c          1 DHD       0.804600
      2 C2           1.4900     0.0000     0.0000 c          1 DHD       0.457100
      3 C3           2.2450     0.0000     1.3030 c3         1 DHD      -0.280400
      4 C4           3.7250    -0.0000     1.0270 c          1 DHD       0.457100
      5 C5           4.6960    -0.0000     2.1570 c          1 DHD       0.804600
      6 O11         -0.6050     0.0000     1.0510 o          1 DHD      -0.842300
      7 O12         -0.6750     0.0000    -1.1640 o          1 DHD      -0.842300
      8 O51          6.0190    -0.0000     1.9110 o          1 DHD      -0.842300
      9 O52          4.2930     0.0000     3.3010 o          1 DHD      -0.842300
     10 O4           4.1270    -0.0000    -0.1130 o          1 DHD      -0.515600
     11 O2           2.0930    -0.0000    -1.0470 o          1 DHD      -0.515600
     12 H31          1.9840    -0.8840     1.8720 hc         1 DHD       0.078700
     13 H32          1.9840     0.8840     1.8720 hc         1 DHD       0.078700
@<TRIPOS>BOND
     1     1     2 1
     2     1     6 1
     3     1     7 1
     4     2     3 1
     5     2    11 2
     6     3     4 1
     7     3    12 1
     8     3    13 1
     9     4     5 1
    10     4    10 2
    11     5     8 1
    12     5     9 1
@<TRIPOS>SUBSTRUCTURE
     1 DHD         1 TEMP              0 ****  ****    0 ROOT
