@<TRIPOS>MOLECULE
DHF
   52    49     1     0     0
SMALL
bcc


@<TRIPOS>ATOM
      1 N1         -2.0600   -1.2980    0.6770 n2        1 DHF     -0.281000
      2 C2         -1.0870   -2.1420    0.5540 c2        1 DHF      0.189000
      3 NA2        -1.2100   -3.3400   -0.2440 n3        1 DHF     -0.335000
      4 N3          0.2000   -1.9590    1.1690 n2        1 DHF     -0.321000
      5 C4          1.3080   -2.4120    0.8390 c1        1 DHF      0.355000
      6 O4          2.4660   -2.7040    0.7290 o         1 DHF     -0.198000
      7 C4A        -1.6890    1.3510    2.5060 c1        1 DHF     -0.028000
      8 N5         -1.6710    1.0680    3.7120 n2        1 DHF     -0.073000
      9 C6         -1.6730    0.4630    4.8410 c2        1 DHF     -0.030000
     10 C7         -2.9160    0.1570    5.6120 c3        1 DHF     -0.198000
     11 N8         -1.5990    3.5030    1.1070 n1        1 DHF     -0.032000
     12 C8A        -1.6360    2.5780    1.8160 c1        1 DHF     -0.099000
     13 C9         -0.3660    0.0280    5.5040 c3        1 DHF     -0.023000
     14 N10         0.4430    1.0860    6.0450 n3        1 DHF     -0.281000
     15 C11        -1.2540    3.2360    9.5350 c2        1 DHF     -0.023000
     16 C12        -0.1600    3.5740    8.8160 c2        1 DHF     -0.063000
     17 C13         0.2830    2.9820    7.5800 c2        1 DHF     -0.218000
     18 C14        -0.0250    1.7180    7.2000 c2        1 DHF     -0.046000
     19 C15        -3.0320    1.4130    9.0020 c1        1 DHF     -0.125000
     20 C16        -2.1810    2.2360    9.1990 c1        1 DHF     -0.236000
     21 O          -0.7980    4.9360   11.1740 o         1 DHF     -0.441000
     22 N          -2.6210    3.6290   11.5550 n         1 DHF     -0.405000
     23 CA         -7.8930   -1.8490   12.5660 c2        1 DHF     -0.314000
     24 CB         -7.3780   -1.0790   11.5980 c2        1 DHF     -0.019000
     25 CG         -6.9000    0.3000   11.8000 c3        1 DHF     -0.226000
     26 CD         -5.6760    0.6100   10.9180 c2        1 DHF      0.344000
     27 OE1        -4.8950    1.5240   11.3030 o         1 DHF     -0.586500
     28 OE2        -5.5170   -0.0460    9.8450 o         1 DHF     -0.586500
     29 CT         -8.3620   -3.2190   12.3660 c2        1 DHF      0.343000
     30 O1         -7.8670   -3.9850   11.3400 oh        1 DHF     -0.313000
     31 O2         -9.1900   -3.8290   13.0520 o         1 DHF     -0.347000
     32 HN1        -1.8950   -0.4420    1.1700 hn        1 DHF      0.216000
     33 HN21       -2.0570   -3.3440   -0.7800 hn        1 DHF      0.183000
     34 HN22       -1.1540   -4.1600    0.3270 hn        1 DHF      0.183000
     35 H71        -3.8420    0.5450    5.1220 hc        1 DHF      0.112667
     36 H72        -3.0110   -0.9520    5.7240 hc        1 DHF      0.112667
     37 HN8        -2.8360    0.6160    6.6340 hc        1 DHF      0.112667
     38 H91         0.2630   -0.5310    4.7520 h1        1 DHF      0.116000
     39 H92        -0.6370   -0.6850    6.3350 h1        1 DHF      0.116000
     40 HN0         0.8050    1.7080    5.3510 hn        1 DHF      0.184000
     41 H12         0.9180    3.6290    6.9520 ha        1 DHF      0.120000
     42 H13         0.4660    4.4090    9.1880 ha        1 DHF      0.149000
     43 H15        -0.6400    1.0660    7.8560 h4        1 DHF      0.164000
     44 H16        -3.8480    0.7130    8.9470 ha        1 DHF      0.287000
     45 HN         -3.2370    2.8900   11.2820 hn        1 DHF      0.251500
     46 HA         -7.1900   -3.4900   10.8570 ho        1 DHF      0.231000
     47 HB1        -8.0200   -1.4820   13.5970 ha        1 DHF      0.149000
     48 HB2        -7.2650   -1.4370   10.5540 ha        1 DHF      0.147000
     49 HG1        -7.7090    1.0170   11.4970 hc        1 DHF      0.098500
     50 HG2        -6.6450    0.5020   12.8710 hc        1 DHF      0.098500
     51 H2         -2.8170    4.1270   12.3860 hn        1 DHF      0.251500
     52 C          -1.5410    3.9910   10.8050 c2        1 DHF      0.335000
@<TRIPOS>BOND
     1    1    2 1
     2    1   32 1
     3    2    3 1
     4    2    4 1
     5    3   33 1
     6    3   34 1
     7    4    5 1
     8    5    6 1
     9    7    8 1
    10    7   12 1
    11    8    9 1
    12    9   10 1
    13    9   13 1
    14   10   35 1
    15   10   36 1
    16   10   37 1
    17   11   12 1
    18   13   14 1
    19   13   38 1
    20   13   39 1
    21   14   18 1
    22   14   40 1
    23   15   16 1
    24   15   20 1
    25   15   52 1
    26   16   17 1
    27   16   42 1
    28   17   18 1
    29   17   41 1
    30   18   43 1
    31   19   20 1
    32   19   44 1
    33   21   52 1
    34   22   45 1
    35   22   51 1
    36   22   52 1
    37   23   24 1
    38   23   29 1
    39   23   47 1
    40   24   25 1
    41   24   48 1
    42   25   26 1
    43   25   49 1
    44   25   50 1
    45   26   27 1
    46   26   28 1
    47   29   30 1
    48   29   31 1
    49   30   46 1
@<TRIPOS>SUBSTRUCTURE
     1 DHF         1 TEMP              0 ****  ****    0 ROOT
