@<TRIPOS>MOLECULE
molecule
   69    68     1     0     0
SMALL
bcc


@<TRIPOS>ATOM
      1 C1           0.0000     0.0000     0.0000 c          1 DHG       0.657100
      2 C2           1.5060     0.0000     0.0000 c3         1 DHG      -0.161400
      3 C3           2.0170     0.0000     1.4410 c3         1 DHG      -0.065400
      4 C4           3.5470     0.0010     1.4420 c3         1 DHG      -0.086400
      5 C5           4.0570    -0.0010     2.8840 c3         1 DHG      -0.080400
      6 C6           5.5870     0.0010     2.8840 c3         1 DHG      -0.082400
      7 C7           6.0970     0.0000     4.3260 c3         1 DHG      -0.081400
      8 C8           7.6270     0.0010     4.3260 c3         1 DHG      -0.082400
      9 C9           8.1370     0.0000     5.7680 c3         1 DHG      -0.082400
     10 C10          9.6670     0.0020     5.7690 c3         1 DHG      -0.082400
     11 C11         10.1780     0.0010     7.2110 c3         1 DHG      -0.084400
     12 C12         11.7080     0.0010     7.2110 c3         1 DHG      -0.092100
     13 O1          -0.6060    -0.0010     1.0490 o          1 DHG      -0.624100
     14 N           -0.6740     0.0000    -1.1660 ns         1 DHG      -0.572900
     15 CH1         -2.6490     0.7210    -2.4160 c3         1 DHG       0.146400
     16 CH2         -2.1390    -0.0000    -1.1670 c3         1 DHG       0.106700
     17 CH3         -2.6480    -1.4430    -1.1680 c3         1 DHG      -0.086400
     18 CH4         -2.1370    -2.1660     0.0810 c3         1 DHG      -0.081400
     19 CH5         -2.6460    -3.6080     0.0810 c3         1 DHG      -0.085400
     20 CH6         -2.1350    -4.3300     1.3290 c3         1 DHG      -0.090100
     21 O1P         -4.0190     2.8740    -3.7290 o          1 DHG      -0.825500
     22 O2P         -3.9730     0.7200    -5.0420 o          1 DHG      -0.825500
     23 O3P         -4.0780     0.7200    -2.4160 os         1 DHG      -0.540200
     24 P           -4.5450     1.4910    -3.7500 p5         1 DHG       1.288800
     25 OG1         -6.1520     1.5270    -3.8150 os         1 DHG      -0.535200
     26 CG1         -6.5020     2.2210    -5.0140 c3         1 DHG       0.161400
     27 CG2         -8.0240     2.2910    -5.1380 c3         1 DHG       0.138400
     28 OG2         -8.5620     2.9870    -4.0110 oh         1 DHG      -0.591800
     29 H21          1.8670     0.8840    -0.5110 hc         1 DHG       0.055700
     30 H22          1.8670    -0.8850    -0.5110 hc         1 DHG       0.055700
     31 H31          1.6570    -0.8850     1.9510 hc         1 DHG       0.057200
     32 H32          1.6560     0.8840     1.9520 hc         1 DHG       0.057200
     33 H41          3.9090    -0.8830     0.9300 hc         1 DHG       0.036700
     34 H42          3.9080     0.8860     0.9320 hc         1 DHG       0.036700
     35 H51          3.6960    -0.8860     3.3930 hc         1 DHG       0.043200
     36 H52          3.6950     0.8830     3.3960 hc         1 DHG       0.043200
     37 H61          5.9470     0.8860     2.3740 hc         1 DHG       0.039200
     38 H62          5.9490    -0.8830     2.3730 hc         1 DHG       0.039200
     39 H71          5.7360    -0.8840     4.8370 hc         1 DHG       0.041200
     40 H72          5.7360     0.8840     4.8370 hc         1 DHG       0.041200
     41 H81          7.9890    -0.8840     3.8150 hc         1 DHG       0.040200
     42 H82          7.9880     0.8850     3.8160 hc         1 DHG       0.040200
     43 H91          7.7750     0.8840     6.2790 hc         1 DHG       0.040700
     44 H92          7.7770    -0.8850     6.2780 hc         1 DHG       0.040700
     45 H101        10.0280     0.8870     5.2590 hc         1 DHG       0.040200
     46 H102        10.0300    -0.8820     5.2580 hc         1 DHG       0.040200
     47 H111         9.8170    -0.8840     7.7210 hc         1 DHG       0.039700
     48 H112         9.8160     0.8850     7.7220 hc         1 DHG       0.039700
     49 H121        12.0690     0.8860     6.7000 hc         1 DHG       0.031033
     50 H122        12.0690     0.0010     8.2320 hc         1 DHG       0.031033
     51 H123        12.0690    -0.8830     6.7000 hc         1 DHG       0.031033
     52 HN          -0.1730     0.0360    -2.0330 hn         1 DHG       0.311500
     53 HH11        -2.2880     0.2100    -3.3000 h1         1 DHG       0.056700
     54 HH12        -2.2890     1.7420    -2.4160 h1         1 DHG       0.056700
     55 HH2         -2.5010     0.5090    -0.2820 h1         1 DHG       0.086700
     56 HH31        -3.7310    -1.4440    -1.1670 hc         1 DHG       0.055700
     57 HH32        -2.2870    -1.9530    -2.0530 hc         1 DHG       0.055700
     58 HH41        -2.4970    -1.6550     0.9660 hc         1 DHG       0.045700
     59 HH42        -1.0530    -2.1660     0.0800 hc         1 DHG       0.045700
     60 HH51        -2.2870    -4.1180    -0.8040 hc         1 DHG       0.036200
     61 HH52        -3.7300    -3.6070     0.0820 hc         1 DHG       0.036200
     62 HH61        -1.0550    -4.3950     1.2910 hc         1 DHG       0.025367
     63 HH62        -2.5560    -5.3280     1.3660 hc         1 DHG       0.025367
     64 HH63        -2.4340    -3.7800     2.2130 hc         1 DHG       0.025367
     65 HG11        -6.0960     3.2240    -4.9820 h1         1 DHG       0.060700
     66 HG12        -6.0940     1.6930    -5.8680 h1         1 DHG       0.060700
     67 HG21        -8.2890     2.8160    -6.0470 h1         1 DHG       0.009200
     68 HG22        -8.4310     1.2870    -5.1690 h1         1 DHG       0.009200
     69 HOG2        -9.4930     3.0930    -4.1210 ho         1 DHG       0.374000
@<TRIPOS>BOND
     1     1     2 1
     2     1    13 2
     3     1    14 1
     4     2     3 1
     5     2    29 1
     6     2    30 1
     7     3     4 1
     8     3    31 1
     9     3    32 1
    10     4     5 1
    11     4    33 1
    12     4    34 1
    13     5     6 1
    14     5    35 1
    15     5    36 1
    16     6     7 1
    17     6    37 1
    18     6    38 1
    19     7     8 1
    20     7    39 1
    21     7    40 1
    22     8     9 1
    23     8    41 1
    24     8    42 1
    25     9    10 1
    26     9    43 1
    27     9    44 1
    28    10    11 1
    29    10    45 1
    30    10    46 1
    31    11    12 1
    32    11    47 1
    33    11    48 1
    34    12    49 1
    35    12    50 1
    36    12    51 1
    37    14    16 1
    38    14    52 1
    39    15    16 1
    40    15    23 1
    41    15    53 1
    42    15    54 1
    43    16    17 1
    44    16    55 1
    45    17    18 1
    46    17    56 1
    47    17    57 1
    48    18    19 1
    49    18    58 1
    50    18    59 1
    51    19    20 1
    52    19    60 1
    53    19    61 1
    54    20    62 1
    55    20    63 1
    56    20    64 1
    57    21    24 1
    58    22    24 1
    59    23    24 1
    60    24    25 1
    61    25    26 1
    62    26    27 1
    63    26    65 1
    64    26    66 1
    65    27    28 1
    66    27    67 1
    67    27    68 1
    68    28    69 1
@<TRIPOS>SUBSTRUCTURE
     1 DHG         1 TEMP              0 ****  ****    0 ROOT
