@<TRIPOS>MOLECULE
molecule
   27    26     1     0     0
SMALL
bcc


@<TRIPOS>ATOM
      1 NP1          0.0000     0.0000     0.0000 nz         1 DHH      -0.799600
      2 C02          1.4690     0.0000     0.0000 c3         1 DHH      -0.018500
      3 C03          1.9720     0.0000     1.4210 c          1 DHH       0.870600
      4 O04          3.2250    -0.3980     1.6900 o          1 DHH      -0.774300
      5 O05          1.2460     0.3570     2.3180 o          1 DHH      -0.774300
      6 C06          1.9790     1.2490    -0.7210 c3         1 DHH      -0.090400
      7 C07          1.5740     1.1890    -2.1950 c3         1 DHH      -0.099400
      8 C08          2.0840     2.4380    -2.9160 c3         1 DHH      -0.078400
      9 C09          1.6790     2.3780    -4.3900 c3         1 DHH      -0.072400
     10 C10          2.1880     3.6270    -5.1120 c3         1 DHH       0.343900
     11 O1           3.6180     3.6270    -5.1120 oh         1 DHH      -0.613800
     12 O2           1.7120     3.6270    -6.4590 oh         1 DHH      -0.613800
     13 HP11        -0.3340     0.8960    -0.2960 hn         1 DHH       0.439133
     14 HP12        -0.3330    -0.7050    -0.6280 hn         1 DHH       0.439133
     15 H02          1.8300    -0.8850    -0.5110 hx         1 DHH       0.104700
     16 H061         1.5480     2.1320    -0.2640 hc         1 DHH       0.086700
     17 H062         3.0590     1.2940    -0.6450 hc         1 DHH       0.086700
     18 H071         2.0060     0.3070    -2.6520 hc         1 DHH       0.030700
     19 H072         0.4940     1.1430    -2.2710 hc         1 DHH       0.030700
     20 H081         1.6520     3.3200    -2.4590 hc         1 DHH       0.057700
     21 H082         3.1630     2.4840    -2.8400 hc         1 DHH       0.057700
     22 H091         0.5990     2.3320    -4.4660 hc         1 DHH       0.060700
     23 H092         2.1100     1.4950    -4.8470 hc         1 DHH       0.060700
     24 H10          1.8270     4.5110    -4.6010 h2         1 DHH       0.014700
     25 HO1          3.9320     4.4260    -5.5000 ho         1 DHH       0.405500
     26 HO2          1.3730     4.4800    -6.6720 ho         1 DHH       0.405500
     27 HP13        -0.3340    -0.1980     0.9230 hn         1 DHH       0.439133
@<TRIPOS>BOND
     1     1     2 1
     2     1    13 1
     3     1    14 1
     4     2     3 1
     5     2     6 1
     6     2    15 1
     7     3     4 1
     8     3     5 1
     9     6     7 1
    10     6    16 1
    11     6    17 1
    12     7     8 1
    13     7    18 1
    14     7    19 1
    15     8     9 1
    16     8    20 1
    17     8    21 1
    18     9    10 1
    19     9    22 1
    20     9    23 1
    21    10    11 1
    22    10    12 1
    23    10    24 1
    24    11    25 1
    25    12    26 1
    26    27     1 1
@<TRIPOS>SUBSTRUCTURE
     1 DHH         1 TEMP              0 ****  ****    0 ROOT
