@<TRIPOS>MOLECULE
molecule
   23    22     1     0     0
SMALL
bcc


@<TRIPOS>ATOM
      1 O2           0.0000     0.0000     0.0000 o          1 DHJ      -0.900300
      2 C3           1.2230     0.0000     0.0000 c          1 DHJ       0.895600
      3 O4           1.9650     0.0000     1.1380 o          1 DHJ      -0.900300
      4 C1           2.0990    -0.0020    -1.2290 c3         1 DHJ      -0.129400
      5 C7           1.2880    -0.0270    -2.5140 c3         1 DHJ      -0.287600
      6 P1           2.3160    -0.0080    -3.9570 p5         1 DHJ       1.067400
      7 O6           3.3340     1.0810    -3.9910 o          1 DHJ      -0.841500
      8 O7           2.9190    -1.5000    -4.0200 o          1 DHJ      -0.841500
      9 C6           1.1930     0.0210    -5.3680 c3         1 DHJ      -0.374600
     10 C5           1.8890     0.0410    -6.7060 c          1 DHJ       0.595100
     11 O5           3.1160     0.0670    -6.7950 o          1 DHJ      -0.500100
     12 C4           0.9900     0.0440    -7.9240 c3         1 DHJ      -0.269400
     13 C2           1.5900    -0.5730    -9.1580 c          1 DHJ       0.902600
     14 O1           2.6960    -1.0970    -9.1950 o          1 DHJ      -0.869800
     15 O3           0.7690    -0.4830   -10.2350 o          1 DHJ      -0.869800
     16 H2           2.7410    -0.8740    -1.2020 hc         1 DHJ       0.043200
     17 H3           0.6370     0.8380    -2.5360 hc         1 DHJ       0.036700
     18 H61          0.5600    -0.8570    -5.3220 hc         1 DHJ       0.046200
     19 H62          0.5680     0.9020    -5.2920 hc         1 DHJ       0.046200
     20 H41          0.7280     1.0710    -8.1510 hc         1 DHJ       0.036200
     21 H42          0.0830    -0.4950    -7.6800 hc         1 DHJ       0.036200
     22 H1           2.7170     0.8880    -1.2210 hc         1 DHJ       0.043200
     23 H7           0.6810    -0.9240    -2.5290 hc         1 DHJ       0.036700
@<TRIPOS>BOND
     1     1     2 1
     2     2     4 1
     3     2     3 1
     4     4     5 1
     5     4    16 1
     6     4    22 1
     7     5     6 1
     8     5    17 1
     9     5    23 1
    10     6     7 1
    11     6     9 1
    12     6     8 1
    13     9    10 1
    14     9    18 1
    15     9    19 1
    16    10    11 2
    17    10    12 1
    18    12    13 1
    19    12    20 1
    20    12    21 1
    21    13    14 1
    22    13    15 1
@<TRIPOS>SUBSTRUCTURE
     1 DHJ         1 TEMP              0 ****  ****    0 ROOT
