@<TRIPOS>MOLECULE
DHJ
   23    22     1     0     0
SMALL
bcc


@<TRIPOS>ATOM
      1 O2          0.4850   -1.3280   -0.1590 o         1 DHJ     -0.896800
      2 C3          1.0230   -0.1820   -0.2600 c         1 DHJ      0.903600
      3 O4          0.9190    0.6680    0.6860 o         1 DHJ     -0.896800
      4 C1          1.8520    0.1930   -1.4860 c3        1 DHJ     -0.154400
      5 C7          1.2960   -0.2470   -2.8110 c3        1 DHJ     -0.339600
      6 P1          2.4200    0.1550   -4.0140 p5        1 DHJ      1.264400
      7 O6          2.3320    1.6070   -4.3380 o         1 DHJ     -0.898500
      8 O7          3.7610   -0.4180   -3.7080 o         1 DHJ     -0.898500
      9 C6          1.6960   -0.7730   -5.3120 c3        1 DHJ     -0.409600
     10 C5          2.1690   -0.5550   -6.7000 c         1 DHJ      0.654100
     11 O5          3.0660   -1.2550   -7.2100 o         1 DHJ     -0.632100
     12 C4          1.5060    0.5290   -7.5070 c3        1 DHJ     -0.276400
     13 C2          0.8090    0.0600   -8.7940 c         1 DHJ      0.921600
     14 O1         -0.1160   -0.8050   -8.7410 o         1 DHJ     -0.879300
     15 O3          1.1380    0.6180   -9.8880 o         1 DHJ     -0.879300
     16 H2          1.9890    1.3050   -1.5120 hc        1 DHJ      0.036200
     17 H3          0.3140    0.2550   -2.9860 hc        1 DHJ      0.054700
     18 H61         1.8650   -1.8470   -5.0500 hc        1 DHJ      0.065700
     19 H62         0.5940   -0.5860   -5.2900 hc        1 DHJ      0.065700
     20 H41         2.2960    1.2730   -7.7880 hc        1 DHJ      0.052200
     21 H42         0.7380    1.0590   -6.8900 hc        1 DHJ      0.052200
     22 H1          2.8690   -0.2710   -1.3700 hc        1 DHJ      0.036200
     23 H7          1.0820   -1.3420   -2.7600 hc        1 DHJ      0.054700
@<TRIPOS>BOND
     1    1    2 1   
     2    2    3 1   
     3    2    4 1   
     4    4    5 1   
     5    4   16 1   
     6    4   22 1   
     7    5    6 1   
     8    5   17 1   
     9    5   23 1   
    10    6    7 1   
    11    6    8 1   
    12    6    9 1   
    13    9   10 1   
    14    9   18 1   
    15    9   19 1   
    16   10   11 2   
    17   10   12 1   
    18   12   13 1   
    19   12   20 1   
    20   12   21 1   
    21   13   14 1   
    22   13   15 1   
@<TRIPOS>SUBSTRUCTURE
     1 DHJ         1 TEMP              0 ****  ****    0 ROOT
