@<TRIPOS>MOLECULE
molecule
   21    21     1     0     0
SMALL
bcc


@<TRIPOS>ATOM
      1 C2           0.0000     0.0000     0.0000 c2         1 DHK      -0.108200
      2 C3           1.3020     0.0000     0.0000 c2         1 DHK      -0.035100
      3 O3           1.9380     0.0050    -1.1970 oh         1 DHK      -0.528100
      4 C4           2.1420     0.0000     1.2450 c3         1 DHK       0.188300
      5 O4           3.2270     0.9160     1.0830 oh         1 DHK      -0.602800
      6 C5           1.2960     0.4130     2.4490 c3         1 DHK       0.129100
      7 C1          -0.8380     0.0050     1.2440 c3         1 DHK      -0.146500
      8 C6           0.0050    -0.4130     2.4500 c3         1 DHK      -0.074400
      9 C           -1.9830    -0.9610     1.0750 c          1 DHK       0.897600
     10 O1          -2.1090    -1.8860     1.8420 o          1 DHK      -0.841300
     11 O2          -2.8610    -0.7920     0.0760 o          1 DHK      -0.841300
     12 O5           2.0240     0.1690     3.6550 oh         1 DHK      -0.619800
     13 H2          -0.5090    -0.0030    -0.9560 ha         1 DHK       0.150000
     14 H3           1.9200    -0.8630    -1.5670 ho         1 DHK       0.394000
     15 H4           2.5320    -0.9970     1.4100 h1         1 DHK       0.038700
     16 HA           4.0430     0.4450     1.1130 ho         1 DHK       0.389000
     17 H5           1.0510     1.4660     2.3750 h1         1 DHK       0.041700
     18 H1          -1.2270     1.0030     1.4090 hc         1 DHK       0.057700
     19 H6C1         0.2480    -1.4660     2.3770 hc         1 DHK       0.060200
     20 H6C2        -0.5470    -0.2230     3.3630 hc         1 DHK       0.060200
     21 HB           1.9680     0.9250     4.2150 ho         1 DHK       0.392000
@<TRIPOS>BOND
     1     1     2 2
     2     1     7 1
     3     1    13 1
     4     2     3 1
     5     2     4 1
     6     3    14 1
     7     4     5 1
     8     4     6 1
     9     4    15 1
    10     5    16 1
    11     6     8 1
    12     6    12 1
    13     6    17 1
    14     7     8 1
    15     7     9 1
    16     7    18 1
    17     8    19 1
    18     8    20 1
    19     9    10 1
    20     9    11 1
    21    12    21 1
@<TRIPOS>SUBSTRUCTURE
     1 DHK         1 TEMP              0 ****  ****    0 ROOT
