@<TRIPOS>MOLECULE
DHK
   21    21     1     0     0
SMALL
bcc


@<TRIPOS>ATOM
      1 C2          0.0540    0.0060    0.0200 c2        1 DHK     -0.155200
      2 C3          1.3950    0.0220    0.0780 c2        1 DHK     -0.056100
      3 O3          2.2210   -0.0770   -1.0360 oh        1 DHK     -0.547100
      4 C4          2.2040    0.1210    1.3380 c3        1 DHK      0.183300
      5 O4          3.2340    1.0970    1.2330 oh        1 DHK     -0.604800
      6 C5          1.3200    0.5240    2.5370 c3        1 DHK      0.138100
      7 C1         -0.7970    0.1090    1.2270 c3        1 DHK     -0.160500
      8 C6         -0.0230   -0.1950    2.4920 c3        1 DHK     -0.088400
      9 C          -2.0400   -0.8240    1.0870 c         1 DHK      0.923600
     10 O1         -2.3640   -1.5340    2.0760 o         1 DHK     -0.834800
     11 O2         -2.6600   -0.7900   -0.0120 o         1 DHK     -0.834800
     12 O5          2.0010    0.2530    3.7540 oh        1 DHK     -0.603800
     13 H2         -0.4990   -0.1060   -0.9280 ha        1 DHK      0.152000
     14 H3          1.6490   -0.1760   -1.8090 ho        1 DHK      0.411000
     15 H4          2.6860   -0.8790    1.5400 h1        1 DHK      0.032700
     16 HA          3.6290    0.9950    0.3580 ho        1 DHK      0.406000
     17 H5          1.1890    1.6420    2.5400 h1        1 DHK      0.080700
     18 H1         -1.2050    1.1570    1.2780 hc        1 DHK      0.051700
     19 H6C1        0.1360   -1.3040    2.5650 hc        1 DHK      0.058700
     20 H6C2       -0.6340    0.1040    3.3820 hc        1 DHK      0.058700
     21 HB          2.0120   -0.7050    3.8640 ho        1 DHK      0.389000
@<TRIPOS>BOND
     1    1    2 2   
     2    1    7 1   
     3    1   13 1   
     4    2    3 1   
     5    2    4 1   
     6    3   14 1   
     7    4    5 1   
     8    4    6 1   
     9    4   15 1   
    10    5   16 1   
    11    6    8 1   
    12    6   12 1   
    13    6   17 1   
    14    7    8 1   
    15    7    9 1   
    16    7   18 1   
    17    8   19 1   
    18    8   20 1   
    19    9   10 1   
    20    9   11 1   
    21   12   21 1   
@<TRIPOS>SUBSTRUCTURE
     1 DHK         1 TEMP              0 ****  ****    0 ROOT
