@<TRIPOS>MOLECULE
molecule
   31    30     1     0     0
SMALL
bcc


@<TRIPOS>ATOM
      1 C7           0.0000     0.0000     0.0000 c2         1 DHM      -0.225000
      2 C6           1.3100     0.0000     0.0000 c2         1 DHM      -0.166200
      3 C5           2.0640     0.0000     1.3040 c3         1 DHM      -0.042500
      4 C4           2.9430    -1.2490     1.3870 c3         1 DHM      -0.074400
      5 C3           3.7070    -1.2490     2.7100 c3         1 DHM      -0.082400
      6 C2           4.5870    -2.4960     2.7920 c3         1 DHM      -0.064400
      7 C1           5.3530    -2.4960     4.1170 c3         1 DHM       0.146800
      8 C8           6.2320    -3.7460     4.1990 c3         1 DHM      -0.121100
      9 C9           6.2310    -1.2480     4.1970 c3         1 DHM      -0.121100
     10 C10          2.9430     1.2490     1.3840 c3         1 DHM      -0.085100
     11 O1           4.4250    -2.4950     5.2030 oh         1 DHM      -0.603800
     12 H72         -0.5420    -0.0000    -0.9380 ha         1 DHM       0.111000
     13 H71         -0.5420     0.0000     0.9380 ha         1 DHM       0.111000
     14 H61          1.8510    -0.0000    -0.9380 ha         1 DHM       0.122000
     15 H5           1.3600     0.0010     2.1280 hc         1 DHM       0.055700
     16 H42          3.6470    -1.2490     0.5630 hc         1 DHM       0.041700
     17 H41          2.3200    -2.1330     1.3300 hc         1 DHM       0.041700
     18 H32          3.0030    -1.2480     3.5330 hc         1 DHM       0.051700
     19 H31          4.3290    -0.3640     2.7670 hc         1 DHM       0.051700
     20 H22          3.9640    -3.3810     2.7360 hc         1 DHM       0.048200
     21 H21          5.2900    -2.4970     1.9690 hc         1 DHM       0.048200
     22 H83          5.6070    -4.6300     4.1540 hc         1 DHM       0.041700
     23 H82          6.9280    -3.7530     3.3690 hc         1 DHM       0.041700
     24 H81          6.7820    -3.7390     5.1320 hc         1 DHM       0.041700
     25 H93          6.5980    -1.0000     3.2090 hc         1 DHM       0.041700
     26 H92          7.0690    -1.4380     4.8570 hc         1 DHM       0.041700
     27 H91          5.6480    -0.4210     4.5840 hc         1 DHM       0.041700
     28 H103         3.8930     1.0540     0.9020 hc         1 DHM       0.034700
     29 H102         3.1120     1.5060     2.4230 hc         1 DHM       0.034700
     30 H101         2.4470     2.0730     0.8850 hc         1 DHM       0.034700
     31 H1           4.8740    -2.7230     6.0000 ho         1 DHM       0.401000
@<TRIPOS>BOND
     1     1     2 2
     2     1    12 1
     3     1    13 1
     4     2     3 1
     5     2    14 1
     6     3     4 1
     7     3    10 1
     8     3    15 1
     9     4     5 1
    10     4    16 1
    11     4    17 1
    12     5     6 1
    13     5    18 1
    14     5    19 1
    15     6     7 1
    16     6    20 1
    17     6    21 1
    18     7     8 1
    19     7     9 1
    20     7    11 1
    21     8    22 1
    22     8    23 1
    23     8    24 1
    24     9    25 1
    25     9    26 1
    26     9    27 1
    27    10    28 1
    28    10    29 1
    29    10    30 1
    30    11    31 1
@<TRIPOS>SUBSTRUCTURE
     1 DHM         1 TEMP              0 ****  ****    0 ROOT
