@<TRIPOS>MOLECULE
DHM
   31    30     1     0     0
SMALL
bcc


@<TRIPOS>ATOM
      1 C7         -0.1360   -0.1180    0.3100 c2        1 DHM     -0.224000
      2 C6          1.1810   -0.1180    0.1280 c2        1 DHM     -0.161200
      3 C5          2.1750    0.0990    1.2200 c3        1 DHM     -0.038500
      4 C4          3.0760   -1.1250    1.3430 c3        1 DHM     -0.073400
      5 C3          3.8050   -1.1630    2.6690 c3        1 DHM     -0.078400
      6 C2          4.6960   -2.3830    2.7600 c3        1 DHM     -0.064400
      7 C1          5.3260   -2.5610    4.1450 c3        1 DHM      0.147800
      8 C8          6.2130   -3.8030    4.1460 c3        1 DHM     -0.123100
      9 C9          6.1450   -1.3420    4.5540 c3        1 DHM     -0.123100
     10 C10         2.9820    1.3520    0.9360 c3        1 DHM     -0.086100
     11 O1          4.2390   -2.7460    5.0550 oh        1 DHM     -0.597800
     12 H72        -0.6030    0.0430    1.2900 ha        1 DHM      0.110500
     13 H71        -0.8410   -0.2800   -0.5160 ha        1 DHM      0.110500
     14 H61         1.6240   -0.2830   -0.8680 ha        1 DHM      0.118000
     15 H5          1.6330    0.2400    2.1990 hc        1 DHM      0.053700
     16 H42         2.4510   -2.0510    1.2410 hc        1 DHM      0.041200
     17 H41         3.8180   -1.1290    0.5020 hc        1 DHM      0.041200
     18 H32         3.0660   -1.1850    3.5130 hc        1 DHM      0.049200
     19 H31         4.4230   -0.2350    2.7890 hc        1 DHM      0.049200
     20 H22         4.0930   -3.3010    2.5310 hc        1 DHM      0.047200
     21 H21         5.5220   -2.3140    2.0060 hc        1 DHM      0.047200
     22 H83         7.0380   -3.6840    3.4070 hc        1 DHM      0.042367
     23 H82         5.6090   -4.7020    3.8770 hc        1 DHM      0.042367
     24 H81         6.6550   -3.9620    5.1580 hc        1 DHM      0.042367
     25 H93         5.4690   -0.4740    4.7430 hc        1 DHM      0.042367
     26 H92         6.7160   -1.5550    5.4890 hc        1 DHM      0.042367
     27 H91         6.8640   -1.0750    3.7450 hc        1 DHM      0.042367
     28 H103        3.5500    1.2470   -0.0200 hc        1 DHM      0.034367
     29 H102        2.3040    2.2360    0.8490 hc        1 DHM      0.034367
     30 H101        3.7080    1.5420    1.7620 hc        1 DHM      0.034367
     31 H1          4.6280   -2.8620    5.9290 ho        1 DHM      0.397000
@<TRIPOS>BOND
     1    1    2 2   
     2    1   12 1   
     3    1   13 1   
     4    2    3 1   
     5    2   14 1   
     6    3    4 1   
     7    3   10 1   
     8    3   15 1   
     9    4    5 1   
    10    4   16 1   
    11    4   17 1   
    12    5    6 1   
    13    5   18 1   
    14    5   19 1   
    15    6    7 1   
    16    6   20 1   
    17    6   21 1   
    18    7    8 1   
    19    7    9 1   
    20    7   11 1   
    21    8   22 1   
    22    8   23 1   
    23    8   24 1   
    24    9   25 1   
    25    9   26 1   
    26    9   27 1   
    27   10   28 1   
    28   10   29 1   
    29   10   30 1   
    30   11   31 1   
@<TRIPOS>SUBSTRUCTURE
     1 DHM         1 TEMP              0 ****  ****    0 ROOT
