@<TRIPOS>MOLECULE
DHO
   67    70     1     0     0
SMALL
bcc


@<TRIPOS>ATOM
      1 C1          0.1120   -0.1020    0.1340 c3        1 DHO     -0.071400
      2 C2          1.6200   -0.1660    0.0790 c3        1 DHO     -0.077400
      3 C3          2.1920   -0.0880    1.4880 c3        1 DHO      0.142100
      4 O3          3.6100   -0.1240    1.3630 oh        1 DHO     -0.602800
      5 C4          1.7220    1.1860    2.1790 c3        1 DHO     -0.110400
      6 C5          0.2040    1.2720    2.2180 c3        1 DHO     -0.045700
      7 C6         -0.2260    2.5450    2.9330 c3        1 DHO     -0.071400
      8 C7          0.0350    3.7870    2.1110 c3        1 DHO     -0.073400
      9 C8         -0.6190    3.6910    0.7430 c3        1 DHO     -0.046700
     10 C9         -0.1490    2.4270    0.0030 c3        1 DHO     -0.046700
     11 C10        -0.4400    1.1560    0.8200 c3        1 DHO     -0.035000
     12 C11        -0.7180    2.3650   -1.4080 c3        1 DHO     -0.067400
     13 C12        -0.5010    3.6380   -2.2370 c3        1 DHO      0.155100
     14 O12         0.8860    3.6790   -2.5500 oh        1 DHO     -0.610800
     15 C13        -0.9870    4.8780   -1.4760 c3        1 DHO     -0.079000
     16 C14        -0.2590    4.8900   -0.1100 c3        1 DHO     -0.066700
     17 C15        -0.5270    6.2820    0.4450 c3        1 DHO     -0.074400
     18 C16        -0.6260    7.1800   -0.7890 c3        1 DHO     -0.078400
     19 C17        -0.5860    6.2690   -2.0330 c3        1 DHO     -0.050700
     20 C18        -2.5000    4.8100   -1.3370 c3        1 DHO     -0.082100
     21 C19        -1.9420    0.9330    0.9870 c3        1 DHO     -0.088100
     22 C20        -1.4150    6.8300   -3.1820 c3        1 DHO     -0.064700
     23 C21        -1.3900    5.9110   -4.3880 c3        1 DHO     -0.088100
     24 C22        -0.8990    8.2130   -3.5760 c3        1 DHO     -0.068400
     25 C23        -1.8800    8.9900   -4.4200 c3        1 DHO     -0.196400
     26 O25        -1.1280   11.0600   -3.4290 o         1 DHO     -0.850800
     27 C24        -1.4960   10.4800   -4.4920 c         1 DHO      0.908600
     28 O26        -1.5900   11.0560   -5.6140 o         1 DHO     -0.850800
     29 H11        -0.2660   -0.9990    0.6990 hc        1 DHO      0.038700
     30 H12A       -0.3010   -0.1740   -0.9050 hc        1 DHO      0.038700
     31 H21         2.0310    0.6750   -0.5390 hc        1 DHO      0.058700
     32 H22         1.9460   -1.1250   -0.4010 hc        1 DHO      0.058700
     33 H3          1.8660   -0.9870    2.0870 h1        1 DHO      0.025700
     34 HO3         3.9730    0.1570    2.2100 ho        1 DHO      0.395000
     35 H41         2.1510    2.0710    1.6410 hc        1 DHO      0.048200
     36 H42         2.1180    1.2080    3.2290 hc        1 DHO      0.048200
     37 H5         -0.1660    0.3940    2.8250 hc        1 DHO      0.036700
     38 H61         0.3200    2.6220    3.9090 hc        1 DHO      0.035200
     39 H62        -1.3210    2.4770    3.1680 hc        1 DHO      0.035200
     40 HC7        -0.3700    4.6850    2.6480 hc        1 DHO      0.041700
     41 H7          1.1390    3.9430    1.9920 hc        1 DHO      0.041700
     42 H8         -1.7330    3.6550    0.8890 hc        1 DHO      0.049700
     43 H9          0.9730    2.5060   -0.1070 hc        1 DHO      0.064700
     44 H111       -0.2220    1.5250   -1.9630 hc        1 DHO      0.044700
     45 H112       -1.8190    2.1600   -1.3750 hc        1 DHO      0.044700
     46 H12        -1.0810    3.5390   -3.2000 h1        1 DHO      0.034700
     47 HO12        1.0230    4.4590   -3.1030 ho        1 DHO      0.408000
     48 H14         0.8470    4.8220   -0.3340 hc        1 DHO      0.058700
     49 H151       -1.4800    6.3010    1.0300 hc        1 DHO      0.033700
     50 H152        0.2960    6.6090    1.1260 hc        1 DHO      0.033700
     51 H161       -1.5760    7.7710   -0.7690 hc        1 DHO      0.057700
     52 H162        0.2230    7.9070   -0.8210 hc        1 DHO      0.057700
     53 H17         0.4830    6.2110   -2.3820 hc        1 DHO      0.037700
     54 H181       -2.8720    5.7020   -0.7770 hc        1 DHO      0.035367
     55 H182       -2.9790    4.8000   -2.3460 hc        1 DHO      0.035367
     56 H183       -2.8250    3.8910   -0.7930 hc        1 DHO      0.035367
     57 H191       -2.4070    0.6830    0.0030 hc        1 DHO      0.033033
     58 H192       -2.1300    0.0820    1.6860 hc        1 DHO      0.033033
     59 H193       -2.4450    1.8400    1.3960 hc        1 DHO      0.033033
     60 H20        -2.4810    6.9410   -2.8370 hc        1 DHO      0.046700
     61 H211       -0.3540    5.5380   -4.5810 hc        1 DHO      0.025367
     62 H212       -1.7390    6.4630   -5.2950 hc        1 DHO      0.025367
     63 H213       -2.0610    5.0310   -4.2400 hc        1 DHO      0.025367
     64 H221        0.0690    8.1000   -4.1310 hc        1 DHO      0.048700
     65 H222       -0.6860    8.8240   -2.6570 hc        1 DHO      0.048700
     66 H231       -2.9060    8.9270   -3.9760 hc        1 DHO      0.019700
     67 H232       -1.9300    8.5770   -5.4590 hc        1 DHO      0.019700
@<TRIPOS>BOND
     1    1    2 1   
     2    1   11 1   
     3    1   29 1   
     4    1   30 1   
     5    2    3 1   
     6    2   31 1   
     7    2   32 1   
     8    3    4 1   
     9    3    5 1   
    10    3   33 1   
    11    4   34 1   
    12    5    6 1   
    13    5   35 1   
    14    5   36 1   
    15    6    7 1   
    16    6   11 1   
    17    6   37 1   
    18    7    8 1   
    19    7   38 1   
    20    7   39 1   
    21    8    9 1   
    22    8   40 1   
    23    8   41 1   
    24    9   10 1   
    25    9   16 1   
    26    9   42 1   
    27   10   11 1   
    28   10   12 1   
    29   10   43 1   
    30   11   21 1   
    31   12   13 1   
    32   12   44 1   
    33   12   45 1   
    34   13   14 1   
    35   13   15 1   
    36   13   46 1   
    37   14   47 1   
    38   15   16 1   
    39   15   19 1   
    40   15   20 1   
    41   16   17 1   
    42   16   48 1   
    43   17   18 1   
    44   17   49 1   
    45   17   50 1   
    46   18   19 1   
    47   18   51 1   
    48   18   52 1   
    49   19   22 1   
    50   19   53 1   
    51   20   54 1   
    52   20   55 1   
    53   20   56 1   
    54   21   57 1   
    55   21   58 1   
    56   21   59 1   
    57   22   23 1   
    58   22   24 1   
    59   22   60 1   
    60   23   61 1   
    61   23   62 1   
    62   23   63 1   
    63   24   25 1   
    64   24   64 1   
    65   24   65 1   
    66   25   27 1   
    67   25   66 1   
    68   25   67 1   
    69   26   27 1   
    70   27   28 1   
@<TRIPOS>SUBSTRUCTURE
     1 DHO         1 TEMP              0 ****  ****    0 ROOT
