@<TRIPOS>MOLECULE
molecule
   67    70     1     0     0
SMALL
bcc


@<TRIPOS>ATOM
      1 C1           0.0000     0.0000     0.0000 c3         1 DHO      -0.070400
      2 C2           1.5290     0.0000     0.0000 c3         1 DHO      -0.095400
      3 C3           2.0400     0.0000     1.4420 c3         1 DHO       0.148100
      4 O3           3.4690     0.0000     1.4410 oh         1 DHO      -0.606800
      5 C4           1.5290     1.2480     2.1630 c3         1 DHO      -0.089400
      6 C5          -0.0000     1.2470     2.1640 c3         1 DHO      -0.053700
      7 C6          -0.5090     2.4950     2.8870 c3         1 DHO      -0.076400
      8 C7          -0.0050     3.7460     2.1660 c3         1 DHO      -0.076400
      9 C8          -0.5190     3.7480     0.7260 c3         1 DHO      -0.066700
     10 C9          -0.0140     2.4980    -0.0100 c3         1 DHO      -0.050700
     11 C10         -0.5090     1.2490     0.7210 c3         1 DHO      -0.056000
     12 C11         -0.4770     2.4690    -1.4630 c3         1 DHO      -0.098400
     13 C12         -0.0770     3.7570    -2.2030 c3         1 DHO       0.161100
     14 O12          1.3440     3.8810    -2.2310 oh         1 DHO      -0.602800
     15 C13         -0.6230     4.9470    -1.4420 c3         1 DHO      -0.061000
     16 C14          0.0090     4.9570    -0.0230 c3         1 DHO      -0.065700
     17 C15         -0.4420     6.3200     0.5090 c3         1 DHO      -0.081400
     18 C16         -0.2530     7.2520    -0.7190 c3         1 DHO      -0.075400
     19 C17         -0.3160     6.3430    -1.9710 c3         1 DHO      -0.046700
     20 C18         -2.1320     4.7870    -1.2450 c3         1 DHO      -0.106100
     21 C19         -2.0400     1.2520     0.7180 c3         1 DHO      -0.087100
     22 C20         -1.4290     6.8110    -2.9100 c3         1 DHO      -0.081700
     23 C21         -1.5190     5.8620    -4.1060 c3         1 DHO      -0.095100
     24 C22         -1.1190     8.2260    -3.4040 c3         1 DHO      -0.061400
     25 C23         -2.2320     8.6940    -4.3430 c3         1 DHO      -0.186400
     26 O25         -0.9200    10.6480    -4.4630 o          1 DHO      -0.857300
     27 C24         -1.9260    10.0870    -4.8300 c          1 DHO       0.890600
     28 O26         -2.7700    10.7050    -5.6710 o          1 DHO      -0.857300
     29 H11         -0.3600     0.0020    -1.0220 hc         1 DHO       0.040700
     30 H12A        -0.3600    -0.8840     0.5130 hc         1 DHO       0.040700
     31 H21          1.8890     0.8860    -0.5090 hc         1 DHO       0.053700
     32 H22          1.8890    -0.8860    -0.5090 hc         1 DHO       0.053700
     33 H3           1.6750    -0.8840     1.9510 h1         1 DHO       0.021700
     34 HO3          3.7840    -0.7830     1.8610 ho         1 DHO       0.393000
     35 H41          1.8890     1.2450     3.1850 hc         1 DHO       0.056700
     36 H42          1.8880     2.1320     1.6510 hc         1 DHO       0.056700
     37 H5          -0.3610     0.3620     2.6730 hc         1 DHO       0.040700
     38 H61         -0.1420     2.4950     3.9060 hc         1 DHO       0.038200
     39 H62         -1.5930     2.4930     2.8880 hc         1 DHO       0.038200
     40 HC7         -0.3700     4.6280     2.6790 hc         1 DHO       0.044700
     41 H7           1.0780     3.7470     2.1620 hc         1 DHO       0.044700
     42 H8          -1.6020     3.7610     0.7240 hc         1 DHO       0.064700
     43 H9           1.0690     2.5010     0.0060 hc         1 DHO       0.069700
     44 H111        -1.5550     2.3680    -1.4890 hc         1 DHO       0.042200
     45 H112        -0.0240     1.6210    -1.9620 hc         1 DHO       0.042200
     46 H12         -0.4760     3.7460    -3.2110 h1         1 DHO       0.044700
     47 HO12         1.6730     3.5540    -3.0520 ho         1 DHO       0.392000
     48 H14          1.0890     4.9170    -0.0920 hc         1 DHO       0.073700
     49 H151         0.1900     6.6380     1.3290 hc         1 DHO       0.035700
     50 H152        -1.4830     6.2890     0.8070 hc         1 DHO       0.035700
     51 H161         0.7110     7.7440    -0.6660 hc         1 DHO       0.051200
     52 H162        -1.0490     7.9860    -0.7540 hc         1 DHO       0.051200
     53 H17          0.6390     6.3460    -2.4820 hc         1 DHO       0.064700
     54 H181        -2.5330     4.1540    -2.0270 hc         1 DHO       0.041033
     55 H182        -2.3240     4.3350    -0.2800 hc         1 DHO       0.041033
     56 H183        -2.6060     5.7600    -1.2890 hc         1 DHO       0.041033
     57 H191        -2.4000     2.2120     1.0670 hc         1 DHO       0.034700
     58 H192        -2.4030     0.4700     1.3740 hc         1 DHO       0.034700
     59 H193        -2.3990     1.0750    -0.2880 hc         1 DHO       0.034700
     60 H20         -2.3730     6.8130    -2.3790 hc         1 DHO       0.046700
     61 H211        -0.5520     5.4050    -4.2780 hc         1 DHO       0.029033
     62 H212        -2.2520     5.0910    -3.9000 hc         1 DHO       0.029033
     63 H213        -1.8180     6.4180    -4.9860 hc         1 DHO       0.029033
     64 H221        -1.0550     8.8980    -2.5570 hc         1 DHO       0.048200
     65 H222        -0.1750     8.2240    -3.9360 hc         1 DHO       0.048200
     66 H231        -3.1760     8.6960    -3.8120 hc         1 DHO       0.027700
     67 H232        -2.2960     8.0220    -5.1910 hc         1 DHO       0.027700
@<TRIPOS>BOND
     1     1     2 1
     2     1    11 1
     3     1    29 1
     4     1    30 1
     5     2     3 1
     6     2    31 1
     7     2    32 1
     8     3     4 1
     9     3     5 1
    10     3    33 1
    11     4    34 1
    12     5     6 1
    13     5    35 1
    14     5    36 1
    15     6     7 1
    16     6    11 1
    17     6    37 1
    18     7     8 1
    19     7    38 1
    20     7    39 1
    21     8     9 1
    22     8    40 1
    23     8    41 1
    24     9    10 1
    25     9    16 1
    26     9    42 1
    27    10    11 1
    28    10    12 1
    29    10    43 1
    30    11    21 1
    31    12    13 1
    32    12    44 1
    33    12    45 1
    34    13    14 1
    35    13    15 1
    36    13    46 1
    37    14    47 1
    38    15    16 1
    39    15    19 1
    40    15    20 1
    41    16    17 1
    42    16    48 1
    43    17    18 1
    44    17    49 1
    45    17    50 1
    46    18    19 1
    47    18    51 1
    48    18    52 1
    49    19    22 1
    50    19    53 1
    51    20    54 1
    52    20    55 1
    53    20    56 1
    54    21    57 1
    55    21    58 1
    56    21    59 1
    57    22    23 1
    58    22    24 1
    59    22    60 1
    60    23    61 1
    61    23    62 1
    62    23    63 1
    63    24    25 1
    64    24    64 1
    65    24    65 1
    66    25    27 1
    67    25    66 1
    68    25    67 1
    69    26    27 1
    70    27    28 1
@<TRIPOS>SUBSTRUCTURE
     1 DHO         1 TEMP              0 ****  ****    0 ROOT
