@<TRIPOS>MOLECULE
DHQ
   23    24     1     0     0
SMALL
bcc


@<TRIPOS>ATOM
      1 C1           0.0000     0.0000     0.0000 c          1 DHQ       0.636100
      2 O           -0.6630    -0.0040    -1.0420 o          1 DHQ      -0.684500
      3 N2           1.3630     0.0000     0.0000 ns         1 DHQ      -0.189900
      4 C3           2.0960     0.0000     1.2580 c3         1 DHQ       0.048000
      5 C4           1.3860     0.8820     2.3200 c3         1 DHQ       0.019900
      6 C4A         -0.0720     0.4210     2.4710 ca         1 DHQ      -0.068300
      7 C5          -0.7550     0.4360     3.7070 ca         1 DHQ      -0.095300
      8 C6          -2.0840     0.0010     3.7490 ca         1 DHQ      -0.080000
      9 C7          -2.7360    -0.4520     2.5910 ca         1 DHQ      -0.116000
     10 C8          -2.0750    -0.4530     1.3670 ca         1 DHQ      -0.036000
     11 C8A         -0.7420    -0.0190     1.3040 ca         1 DHQ      -0.146600
     12 C9          -0.0750     0.9170     5.0060 c3         1 DHQ       0.073200
     13 HN2          1.8620    -0.0000    -0.8680 hn         1 DHQ       0.184500
     14 H31          2.1390    -1.0170     1.6290 h1         1 DHQ       0.017700
     15 H32          3.0840     0.4070     1.0790 h1         1 DHQ       0.017700
     16 H41          1.8920     0.7600     3.2700 hc         1 DHQ       0.030700
     17 H42          1.3940     1.9110     1.9820 hc         1 DHQ       0.030700
     18 H6          -2.6140    -0.0050     4.6940 ha         1 DHQ       0.104000
     19 H7          -3.7650    -0.7840     2.6470 ha         1 DHQ       0.106000
     20 H8          -2.5790    -0.8030     0.4740 ha         1 DHQ       0.125000
     21 H91          0.7340     0.2430     5.2620 hc         1 DHQ       0.006700
     22 H92          0.3200     1.9150     4.8590 hc         1 DHQ       0.006700
     23 H93         -0.8000     0.9310     5.8110 hc         1 DHQ       0.006700
@<TRIPOS>BOND
     1     1     2 2   
     2     1     3 1   
     3     1    11 1   
     4     3     4 1   
     5     3    13 1   
     6     4     5 1   
     7     4    14 1   
     8     4    15 1   
     9     5     6 1   
    10     5    16 1   
    11     5    17 1   
    12     6     7 ar  
    13     6    11 ar  
    14     7     8 ar  
    15     7    12 1   
    16     8     9 ar  
    17     8    18 1   
    18     9    10 ar  
    19     9    19 1   
    20    10    11 ar  
    21    10    20 1   
    22    12    21 1   
    23    12    22 1   
    24    12    23 1   
@<TRIPOS>SUBSTRUCTURE
     1 DHQ         1 TEMP              0 ****  ****    0 ROOT
