@<TRIPOS>MOLECULE
DHR
   18    18     1     0     0
SMALL
bcc


@<TRIPOS>ATOM
      1 N2          -1.1360    -0.0120     0.0160 n1         1 DHR      -0.363800
      2 C2           0.0000     0.0000     0.0000 c1         1 DHR       0.158700
      3 C3           1.9730    -1.2310    -0.7110 ca         1 DHR      -0.151300
      4 C4           2.2030    -1.1950    -2.0720 ca         1 DHR      -0.049500
      5 C8           2.2090    -2.3900     0.0030 ca         1 DHR      -0.049500
      6 C7           2.6640    -3.5220    -0.6470 ca         1 DHR      -0.142000
      7 C5           2.6630    -2.3220    -2.7260 ca         1 DHR      -0.142000
      8 C6           2.8950    -3.4890    -2.0140 ca         1 DHR       0.139100
      9 O6           3.3480    -4.5990    -2.6540 oh         1 DHR      -0.501100
     10 C1           1.4720     0.0000     0.0000 c3         1 DHR       0.391500
     11 O1           1.9480     0.0000     1.3470 oh         1 DHR      -0.573800
     12 H4           2.0200    -0.2840    -2.6280 ha         1 DHR       0.113500
     13 H8           2.0270    -2.4150     1.0710 ha         1 DHR       0.113500
     14 H7           2.8470    -4.4320    -0.0880 ha         1 DHR       0.117500
     15 H5           2.8440    -2.2940    -3.7940 ha         1 DHR       0.117500
     16 H6           2.6150    -5.1120    -2.9510 ho         1 DHR       0.406000
     17 H1           1.8330     0.8840    -0.5110 h1         1 DHR       0.015700
     18 HO1          2.0510     0.8890     1.6430 ho         1 DHR       0.400000
@<TRIPOS>BOND
     1     1     2 3   
     2     2    10 1   
     3     3     4 ar  
     4     3     5 ar  
     5     3    10 1   
     6     4     7 ar  
     7     4    12 1   
     8     5     6 ar  
     9     5    13 1   
    10     6     8 ar  
    11     6    14 1   
    12     7     8 ar  
    13     7    15 1   
    14     8     9 1   
    15     9    16 1   
    16    10    11 1   
    17    10    17 1   
    18    11    18 1   
@<TRIPOS>SUBSTRUCTURE
     1 DHR         1 TEMP              0 ****  ****    0 ROOT
