@<TRIPOS>MOLECULE
molecule
   23    23     1     0     0
SMALL
bcc


@<TRIPOS>ATOM
      1 N            0.0000     0.0000     0.0000 nz         1 DHS      -0.806600
      2 C1           2.9710     1.9600    -0.2970 ce         1 DHS      -0.018400
      3 C3           1.4700     0.0000     0.0000 c3         1 DHS       0.155700
      4 C4           1.9760     0.0000     1.4440 c3         1 DHS       0.119100
      5 C5           3.4890     0.2480     1.4290 c3         1 DHS       0.140100
      6 C6           3.7380     1.6840     0.9640 c3         1 DHS      -0.078200
      7 C7           3.3620     3.1210    -1.1040 c          1 DHS       0.856800
      8 C2           1.9680     1.2190    -0.7200 c2         1 DHS      -0.335200
      9 O2           1.7040    -1.2660     2.0480 oh         1 DHS      -0.616800
     10 O3           4.0230     0.0690     2.7420 oh         1 DHS      -0.601800
     11 O4           4.3310     3.8650    -0.7260 o          1 DHS      -0.794300
     12 O5           2.7340     3.3890    -2.1840 o          1 DHS      -0.794300
     13 HN1         -0.3340     0.8140     0.4760 hn         1 DHS       0.445467
     14 HN2         -0.3340     0.0050    -0.9440 hn         1 DHS       0.445467
     15 H3           1.8330    -0.8860    -0.5060 hx         1 DHS       0.112700
     16 H4           1.4840     0.7880     2.0010 h1         1 DHS       0.056700
     17 H5           3.9620    -0.4420     0.7410 h1         1 DHS       0.053700
     18 H61          3.4150     2.3710     1.7370 hc         1 DHS       0.097200
     19 H62          4.7960     1.8200     0.7760 hc         1 DHS       0.097200
     20 H2           1.4750     1.5050    -1.6410 ha         1 DHS       0.178000
     21 HO2          1.3430    -1.1320     2.9090 ho         1 DHS       0.423000
     22 HO3          4.8560    -0.3680     2.6860 ho         1 DHS       0.420000
     23 HN3         -0.3340    -0.8270     0.4550 hn         1 DHS       0.445467
@<TRIPOS>BOND
     1     1     3 1
     2     1    13 1
     3     1    14 1
     4     2     6 1
     5     2     7 1
     6     2     8 2
     7     3     4 1
     8     3     8 1
     9     3    15 1
    10     4     5 1
    11     4     9 1
    12     4    16 1
    13     5     6 1
    14     5    10 1
    15     5    17 1
    16     6    18 1
    17     6    19 1
    18     7    11 1
    19     7    12 1
    20     8    20 1
    21     9    21 1
    22    10    22 1
    23    23     1 1
@<TRIPOS>SUBSTRUCTURE
     1 DHS         1 TEMP              0 ****  ****    0 ROOT
