@<TRIPOS>MOLECULE
DHT
   51    54     1     0     0
SMALL
bcc


@<TRIPOS>ATOM
      1 C1          0.1000   -0.0420   -0.0040 c3        1 DHT     -0.068400
      2 C2          1.5780    0.2150    0.1990 c3        1 DHT     -0.181400
      3 C3          1.9790    0.2170    1.6450 c         1 DHT      0.571100
      4 O3          2.7510    1.0620    2.1100 o         1 DHT     -0.535100
      5 C4          1.4170   -0.8940    2.4850 c3        1 DHT     -0.179400
      6 C5         -0.0710   -1.0760    2.2440 c3        1 DHT     -0.050700
      7 C6         -0.6130   -2.2070    3.1020 c3        1 DHT     -0.073400
      8 C7         -2.1170   -2.2990    2.9660 c3        1 DHT     -0.074400
      9 C8         -2.5290   -2.4670    1.5120 c3        1 DHT     -0.047700
     10 C9         -1.9510   -1.3360    0.6420 c3        1 DHT     -0.048700
     11 C10        -0.4120   -1.2730    0.7540 c3        1 DHT     -0.039000
     12 C11        -2.4330   -1.4300   -0.8010 c3        1 DHT     -0.075400
     13 C12        -3.9420   -1.5550   -0.9400 c3        1 DHT     -0.063400
     14 C13        -4.4660   -2.7000   -0.0920 c3        1 DHT     -0.044000
     15 C14        -4.0360   -2.4280    1.3690 c3        1 DHT     -0.067700
     16 C15        -4.8990   -3.3700    2.1980 c3        1 DHT     -0.068400
     17 C16        -6.2280   -3.4390    1.4430 c3        1 DHT     -0.117400
     18 C17        -6.0060   -2.7610    0.0730 c3        1 DHT      0.141100
     19 O17        -6.5770   -3.4980   -0.9930 oh        1 DHT     -0.591800
     20 C18        -3.9810   -4.0330   -0.6360 c3        1 DHT     -0.076100
     21 C19         0.2400   -2.5190    0.1770 c3        1 DHT     -0.086100
     22 H11        -0.0830   -0.1780   -1.1030 hc        1 DHT      0.048700
     23 H12        -0.4820    0.8580    0.3270 hc        1 DHT      0.048700
     24 H21         2.1800   -0.5810   -0.3180 hc        1 DHT      0.069200
     25 H22         1.8530    1.1990   -0.2690 hc        1 DHT      0.069200
     26 H41         1.5950   -0.6730    3.5710 hc        1 DHT      0.070200
     27 H42         1.9740   -1.8380    2.2410 hc        1 DHT      0.070200
     28 H5         -0.5830   -0.1230    2.5720 hc        1 DHT      0.052700
     29 H61        -0.3450   -2.0210    4.1750 hc        1 DHT      0.043200
     30 H62        -0.1390   -3.1770    2.8010 hc        1 DHT      0.043200
     31 H71        -2.5910   -1.3720    3.3860 hc        1 DHT      0.042700
     32 H72        -2.5000   -3.1700    3.5590 hc        1 DHT      0.042700
     33 H8         -2.1450   -3.4580    1.1470 hc        1 DHT      0.058700
     34 H9         -2.3460   -0.3640    1.0610 hc        1 DHT      0.045700
     35 H111       -1.9450   -2.3050   -1.3050 hc        1 DHT      0.042200
     36 H112       -2.1110   -0.5050   -1.3520 hc        1 DHT      0.042200
     37 H121       -4.2030   -1.7300   -2.0160 hc        1 DHT      0.044700
     38 H122       -4.4320   -0.5970   -0.6230 hc        1 DHT      0.044700
     39 H14        -4.3660   -1.3770    1.6270 hc        1 DHT      0.045700
     40 H151       -4.4290   -4.3830    2.2700 hc        1 DHT      0.045200
     41 H152       -5.0370   -2.9830    3.2370 hc        1 DHT      0.045200
     42 H161       -6.5440   -4.5010    1.2950 hc        1 DHT      0.047700
     43 H162       -7.0350   -2.9120    2.0080 hc        1 DHT      0.047700
     44 H17        -6.4340   -1.7210    0.0750 h1        1 DHT      0.034700
     45 HO7        -7.5190   -3.5710   -0.7980 ho        1 DHT      0.399000
     46 H181       -4.3380   -4.8670    0.0160 hc        1 DHT      0.040367
     47 H182       -2.8680   -4.0730   -0.6940 hc        1 DHT      0.040367
     48 H183       -4.3970   -4.1870   -1.6620 hc        1 DHT      0.040367
     49 H191        1.3410   -2.5110    0.3630 hc        1 DHT      0.037033
     50 H192        0.0790   -2.5640   -0.9280 hc        1 DHT      0.037033
     51 H193       -0.1820   -3.4460    0.6330 hc        1 DHT      0.037033
@<TRIPOS>BOND
     1    1    2 1   
     2    1   11 1   
     3    1   22 1   
     4    1   23 1   
     5    2    3 1   
     6    2   24 1   
     7    2   25 1   
     8    3    4 2   
     9    3    5 1   
    10    5    6 1   
    11    5   26 1   
    12    5   27 1   
    13    6    7 1   
    14    6   11 1   
    15    6   28 1   
    16    7    8 1   
    17    7   29 1   
    18    7   30 1   
    19    8    9 1   
    20    8   31 1   
    21    8   32 1   
    22    9   10 1   
    23    9   15 1   
    24    9   33 1   
    25   10   11 1   
    26   10   12 1   
    27   10   34 1   
    28   11   21 1   
    29   12   13 1   
    30   12   35 1   
    31   12   36 1   
    32   13   14 1   
    33   13   37 1   
    34   13   38 1   
    35   14   15 1   
    36   14   18 1   
    37   14   20 1   
    38   15   16 1   
    39   15   39 1   
    40   16   17 1   
    41   16   40 1   
    42   16   41 1   
    43   17   18 1   
    44   17   42 1   
    45   17   43 1   
    46   18   19 1   
    47   18   44 1   
    48   19   45 1   
    49   20   46 1   
    50   20   47 1   
    51   20   48 1   
    52   21   49 1   
    53   21   50 1   
    54   21   51 1   
@<TRIPOS>SUBSTRUCTURE
     1 DHT         1 TEMP              0 ****  ****    0 ROOT
