@<TRIPOS>MOLECULE
molecule
   19    19     1     0     0
SMALL
bcc


@<TRIPOS>ATOM
      1 C1           0.0000     0.0000     0.0000 ca         1 DHY       0.003700
      2 C2           1.3810     0.0000     0.0000 ca         1 DHY      -0.149000
      3 C3           2.0740     0.0000     1.2010 ca         1 DHY       0.082100
      4 C4           1.3740    -0.0110     2.4030 ca         1 DHY       0.048100
      5 C5          -0.0110    -0.0150     2.3950 ca         1 DHY      -0.156000
      6 C6          -0.6960    -0.0110     1.1940 ca         1 DHY      -0.120000
      7 C7          -0.7510     0.0050    -1.3070 c3         1 DHY      -0.155100
      8 C8          -1.0090     1.4260    -1.7330 c          1 DHY       0.893600
      9 O1          -0.6210     2.3420    -1.0470 o          1 DHY      -0.842800
     10 O2          -1.6680     1.6760    -2.8750 o          1 DHY      -0.842800
     11 O3           3.4330     0.0050     1.2030 oh         1 DHY      -0.530100
     12 O4           2.0490    -0.0160     3.5830 oh         1 DHY      -0.521100
     13 H2           1.9230     0.0080    -0.9380 ha         1 DHY       0.139000
     14 H5          -0.5570    -0.0240     3.3300 ha         1 DHY       0.120000
     15 H6          -1.7790    -0.0130     1.1890 ha         1 DHY       0.132000
     16 H71         -1.6950    -0.5120    -1.1830 hc         1 DHY       0.041700
     17 H72         -0.1610    -0.4980    -2.0640 hc         1 DHY       0.041700
     18 HO3          3.7450     0.8540     0.9360 ho         1 DHY       0.415000
     19 HO4          2.0040    -0.8760     3.9670 ho         1 DHY       0.399000
@<TRIPOS>BOND
     1     1     2 ar
     2     1     6 ar
     3     1     7 1
     4     2     3 ar
     5     2    13 1
     6     3     4 ar
     7     3    11 1
     8     4     5 ar
     9     4    12 1
    10     5     6 ar
    11     5    14 1
    12     6    15 1
    13     7     8 1
    14     7    16 1
    15     7    17 1
    16     8     9 1
    17     8    10 1
    18    11    18 1
    19    12    19 1
@<TRIPOS>SUBSTRUCTURE
     1 DHY         1 TEMP              0 ****  ****    0 ROOT
