@<TRIPOS>MOLECULE
DHY
   19    19     1     0     0
SMALL
bcc


@<TRIPOS>ATOM
      1 C1         -0.0970    0.0350    0.0490 ca        1 DHY     -0.014300
      2 C2          1.2200    0.4930    0.1820 ca        1 DHY     -0.162000
      3 C3          1.8410    0.4730    1.4320 ca        1 DHY      0.030100
      4 C4          1.1570   -0.0090    2.5660 ca        1 DHY      0.066100
      5 C5         -0.1600   -0.4620    2.4340 ca        1 DHY     -0.146000
      6 C6         -0.7740   -0.4350    1.1840 ca        1 DHY     -0.152000
      7 C7         -0.7490    0.0310   -1.2820 c3        1 DHY     -0.173100
      8 C8         -0.5060    1.3180   -2.1050 c         1 DHY      0.917600
      9 O1          0.6790    1.5970   -2.4510 o         1 DHY     -0.841800
     10 O2         -1.5160    2.0030   -2.4230 o         1 DHY     -0.841800
     11 O3          3.1400    0.9110    1.6300 oh        1 DHY     -0.542100
     12 O4          1.7370   -0.0660    3.8190 oh        1 DHY     -0.519100
     13 H2          1.7310    0.8990   -0.7130 ha        1 DHY      0.198000
     14 H5         -0.6930   -0.8290    3.3200 ha        1 DHY      0.128000
     15 H6         -1.8130   -0.7810    1.0880 ha        1 DHY      0.124000
     16 H71        -0.3380   -0.8240   -1.8800 hc        1 DHY      0.039200
     17 H72        -1.8540   -0.1170   -1.1730 hc        1 DHY      0.039200
     18 HO3         3.4090    1.3660    0.8190 ho        1 DHY      0.428000
     19 HO4         2.5970    0.3720    3.7540 ho        1 DHY      0.422000
@<TRIPOS>BOND
     1    1    2 ar  
     2    1    6 ar  
     3    1    7 1   
     4    2    3 ar  
     5    2   13 1   
     6    3    4 ar  
     7    3   11 1   
     8    4    5 ar  
     9    4   12 1   
    10    5    6 ar  
    11    5   14 1   
    12    6   15 1   
    13    7    8 1   
    14    7   16 1   
    15    7   17 1   
    16    8    9 1   
    17    8   10 1   
    18   11   18 1   
    19   12   19 1   
@<TRIPOS>SUBSTRUCTURE
     1 DHY         1 TEMP              0 ****  ****    0 ROOT
