@<TRIPOS>MOLECULE
molecule
   30    31     1     0     0
SMALL
bcc


@<TRIPOS>ATOM
      1 N1           0.0000     0.0000     0.0000 n          1 DHZ      -0.379000
      2 C2           1.3380     0.0000     0.0000 c          1 DHZ       0.829500
      3 O2           1.9300     0.0090    -1.0620 o          1 DHZ      -0.690500
      4 N3           2.0490     0.0000     1.1460 ns         1 DHZ      -0.588900
      5 C4           1.3150    -0.0110     2.4230 c3         1 DHZ       0.143200
      6 C5          -0.1960    -0.0170     2.3510 c2         1 DHZ      -0.278200
      7 C6          -0.7620    -0.0110     1.1580 c2         1 DHZ       0.009600
      8 C1'         -0.6940     0.0060    -1.2890 c3         1 DHZ       0.321500
      9 C2'         -0.2390     1.2100    -2.1520 c3         1 DHZ       0.086100
     10 O2'         -1.0050     2.3760    -1.8440 oh         1 DHZ      -0.582800
     11 C3'         -0.5440     0.7120    -3.5890 c3         1 DHZ       0.092100
     12 O3'         -1.7960     1.2290    -4.0430 oh         1 DHZ      -0.578800
     13 C4'         -0.6030    -0.8200    -3.4500 c3         1 DHZ       0.129100
     14 O4'         -0.3110    -1.1390    -2.0780 os         1 DHZ      -0.380600
     15 C5'          0.4360    -1.4670    -4.3670 c3         1 DHZ       0.142400
     16 O5'          0.3790    -2.8870    -4.2250 oh         1 DHZ      -0.592800
     17 HN3          3.0500     0.0070     1.1290 hn         1 DHZ       0.354500
     18 H41          1.6230    -0.8910     2.9750 h1         1 DHZ       0.038200
     19 H42          1.6160     0.8650     2.9860 h1         1 DHZ       0.038200
     20 H5          -0.7790    -0.2810     3.2250 ha         1 DHZ       0.158000
     21 H6          -1.8420    -0.0130     1.0820 h4         1 DHZ       0.154000
     22 H1'         -1.7680     0.0260    -1.1490 h2         1 DHZ       0.087700
     23 H2'          0.8210     1.3920    -2.0260 h1         1 DHZ       0.098700
     24 HO2         -0.4480     3.1360    -1.8750 ho         1 DHZ       0.404000
     25 H3'          0.2550     0.9970    -4.2630 h1         1 DHZ       0.047700
     26 HO3         -1.6810     1.6400    -4.8830 ho         1 DHZ       0.402000
     27 H4'         -1.5950    -1.1720    -3.7040 h1         1 DHZ       0.074700
     28 H5'1         1.4250    -1.1170    -4.0960 h1         1 DHZ       0.032200
     29 H5'2         0.2270    -1.1980    -5.3950 h1         1 DHZ       0.032200
     30 HO5          0.8140    -3.2940    -4.9560 ho         1 DHZ       0.399000
@<TRIPOS>BOND
     1     1     2 1
     2     1     7 1
     3     1     8 1
     4     2     3 2
     5     2     4 1
     6     4     5 1
     7     4    17 1
     8     5     6 1
     9     5    18 1
    10     5    19 1
    11     6     7 2
    12     6    20 1
    13     7    21 1
    14     8     9 1
    15     8    14 1
    16     8    22 1
    17     9    10 1
    18     9    11 1
    19     9    23 1
    20    10    24 1
    21    11    12 1
    22    11    13 1
    23    11    25 1
    24    12    26 1
    25    13    14 1
    26    13    15 1
    27    13    27 1
    28    15    16 1
    29    15    28 1
    30    15    29 1
    31    16    30 1
@<TRIPOS>SUBSTRUCTURE
     1 DHZ         1 TEMP              0 ****  ****    0 ROOT
