@<TRIPOS>MOLECULE
molecule
   71    75     1     0     0
SMALL
bcc


@<TRIPOS>ATOM
      1 C01          0.0000     0.0000     0.0000 c3         1 DI1      -0.094100
      2 C02          1.5300     0.0000     0.0000 c3         1 DI1       0.160800
      3 N03          2.0200     0.0000     1.3850 n3         1 DI1      -0.734600
      4 C04          3.4690     0.2380     1.4310 c3         1 DI1       0.164300
      5 C05          3.9250     0.3100     2.8900 c3         1 DI1       0.162300
      6 N06          3.5790    -0.9450     3.5710 n3         1 DI1      -0.719600
      7 C07          2.1290    -1.1820     3.5250 c3         1 DI1       0.162300
      8 C08          1.6730    -1.2540     2.0660 c3         1 DI1       0.164300
      9 C09          4.0680    -0.9440     4.9570 c3         1 DI1       0.184100
     10 C10          3.9160    -2.3240     5.5430 ca         1 DI1      -0.006300
     11 C11          2.8440    -2.6040     6.3740 ca         1 DI1      -0.142000
     12 C12          2.7000    -3.8650     6.9150 ca         1 DI1      -0.082000
     13 C13          3.6350    -4.8590     6.6230 ca         1 DI1      -0.156600
     14 C14          4.7130    -4.5690     5.7840 ca         1 DI1      -0.024000
     15 C15          4.8430    -3.3050     5.2460 ca         1 DI1      -0.171300
     16 C16          6.0030    -2.9920     4.3350 c3         1 DI1       0.676200
     17 F17          6.7980    -4.1330     4.1840 f          1 DI1      -0.216967
     18 F18          5.5190    -2.5930     3.0850 f          1 DI1      -0.216967
     19 F19          6.7670    -1.9610     4.8910 f          1 DI1      -0.216967
     20 C20          3.4870    -6.2110     7.2000 c          1 DI1       0.676700
     21 N21          2.4450    -6.4880     8.0090 ns         1 DI1      -0.474100
     22 C22          2.2570    -7.7890     8.4870 ca         1 DI1       0.080600
     23 C23          3.3550    -8.5840     8.7910 ca         1 DI1      -0.153000
     24 C24          3.1690    -9.8690     9.2630 ca         1 DI1      -0.083000
     25 C25          1.8910   -10.3670     9.4330 ca         1 DI1      -0.116300
     26 C26          1.6930   -11.7690     9.9490 c3         1 DI1      -0.036800
     27 C27          0.7910    -9.5780     9.1320 ca         1 DI1       0.145100
     28 C28          0.9730    -8.2850     8.6630 ca         1 DI1      -0.239000
     29 O29         -0.4650   -10.0680     9.3000 os         1 DI1      -0.239200
     30 C30         -1.5100    -9.3050     8.8830 ca         1 DI1       0.079100
     31 C31         -1.6930    -9.0530     7.5310 ca         1 DI1      -0.119000
     32 C32         -2.7520    -8.2790     7.1040 ca         1 DI1      -0.147000
     33 C33         -3.6470    -7.7450     8.0290 ca         1 DI1       0.047600
     34 C34         -3.4550    -8.0030     9.3810 ca         1 DI1      -0.137300
     35 C35         -4.5740    -7.2970    10.1110 c3         1 DI1      -0.121100
     36 C36         -5.3760    -6.6370     9.0100 c          1 DI1       0.709500
     37 N37         -4.7780    -6.9440     7.8460 ns         1 DI1      -0.462100
     38 O38         -6.3720    -5.9600     9.1500 o          1 DI1      -0.601500
     39 C39         -2.4030    -8.7800     9.8080 ca         1 DI1      -0.084000
     40 O40          4.3030    -7.0750     6.9430 o          1 DI1      -0.586100
     41 H011        -0.3610     0.5530     0.8590 hc         1 DI1       0.038700
     42 H012        -0.3610    -1.0200     0.0490 hc         1 DI1       0.038700
     43 H013        -0.3610     0.4670    -0.9080 hc         1 DI1       0.038700
     44 H021         1.8910    -0.8840    -0.5110 h1         1 DI1       0.034200
     45 H022         1.8910     0.8850    -0.5110 h1         1 DI1       0.034200
     46 H041         3.9840    -0.5740     0.9330 h1         1 DI1       0.043700
     47 H042         3.6960     1.1750     0.9360 h1         1 DI1       0.043700
     48 H081         2.1700    -2.0810     1.5730 h1         1 DI1       0.043700
     49 H082         0.6000    -1.3990     2.0300 h1         1 DI1       0.043700
     50 H051         3.4270     1.1370     3.3830 h1         1 DI1       0.041200
     51 H052         4.9980     0.4550     2.9250 h1         1 DI1       0.041200
     52 H071         1.6150    -0.3690     4.0230 h1         1 DI1       0.041200
     53 H072         1.9010    -2.1180     4.0210 h1         1 DI1       0.041200
     54 H091         5.1130    -0.6580     4.9710 h1         1 DI1       0.054700
     55 H092         3.4930    -0.2370     5.5420 h1         1 DI1       0.054700
     56 H11          2.1190    -1.8320     6.6000 ha         1 DI1       0.143000
     57 H12          1.8610    -4.0840     7.5650 ha         1 DI1       0.130000
     58 H14          5.4420    -5.3360     5.5520 ha         1 DI1       0.178000
     59 H21          1.8270    -5.7550     8.2980 hn         1 DI1       0.325500
     60 H23          4.3570    -8.1950     8.6580 ha         1 DI1       0.167000
     61 H28          0.1150    -7.6670     8.4270 ha         1 DI1       0.143000
     62 H24          4.0270   -10.4880     9.4990 ha         1 DI1       0.142000
     63 H261         1.1180   -12.3400     9.2300 hc         1 DI1       0.045033
     64 H262         1.1610   -11.7350    10.8920 hc         1 DI1       0.045033
     65 H263         2.6580   -12.2390    10.0950 hc         1 DI1       0.045033
     66 H31         -1.0100    -9.4790     6.8060 ha         1 DI1       0.155000
     67 H39         -2.3100    -9.0380    10.8560 ha         1 DI1       0.151000
     68 H32         -2.8880    -8.0870     6.0470 ha         1 DI1       0.139000
     69 H37         -5.1040    -6.6350     6.9520 hn         1 DI1       0.339500
     70 H351        -5.1860    -8.0120    10.6480 hc         1 DI1       0.093200
     71 H352        -4.1720    -6.5500    10.7850 hc         1 DI1       0.093200
@<TRIPOS>BOND
     1     1     2 1
     2     2     3 1
     3     3     4 1
     4     3     8 1
     5     4     5 1
     6     5     6 1
     7     6     7 1
     8     6     9 1
     9     7     8 1
    10     9    10 1
    11    10    11 ar
    12    10    15 ar
    13    11    12 ar
    14    12    13 ar
    15    13    14 ar
    16    13    20 1
    17    14    15 ar
    18    15    16 1
    19    16    17 1
    20    16    18 1
    21    16    19 1
    22    20    21 1
    23    20    40 2
    24    21    22 1
    25    22    23 ar
    26    22    28 ar
    27    23    24 ar
    28    24    25 ar
    29    25    26 1
    30    25    27 ar
    31    27    28 ar
    32    27    29 1
    33    29    30 1
    34    30    31 ar
    35    30    39 ar
    36    31    32 ar
    37    32    33 ar
    38    33    34 ar
    39    33    37 1
    40    34    35 1
    41    34    39 ar
    42    35    36 1
    43    36    37 1
    44    36    38 2
    45     1    41 1
    46     1    42 1
    47     1    43 1
    48     2    44 1
    49     2    45 1
    50     4    46 1
    51     4    47 1
    52     8    48 1
    53     8    49 1
    54     5    50 1
    55     5    51 1
    56     7    52 1
    57     7    53 1
    58     9    54 1
    59     9    55 1
    60    11    56 1
    61    12    57 1
    62    14    58 1
    63    21    59 1
    64    23    60 1
    65    28    61 1
    66    24    62 1
    67    26    63 1
    68    26    64 1
    69    26    65 1
    70    31    66 1
    71    39    67 1
    72    32    68 1
    73    37    69 1
    74    35    70 1
    75    35    71 1
@<TRIPOS>SUBSTRUCTURE
     1 DI1         1 TEMP              0 ****  ****    0 ROOT
