@<TRIPOS>MOLECULE
DI1
   71    75     1     0     0
SMALL
bcc


@<TRIPOS>ATOM
      1 C01          0.0000     0.0000     0.0000 c3         1 DI1      -0.002100
      2 C02          1.5300     0.0000     0.0000 c3         1 DI1       0.154800
      3 N03          2.0200     0.0000     1.3850 n3         1 DI1      -0.547600
      4 C04          3.4690     0.2380     1.4310 c3         1 DI1       0.151800
      5 C05          3.9250     0.3100     2.8900 c3         1 DI1       0.148800
      6 N06          3.5790    -0.9450     3.5710 n3         1 DI1      -0.531600
      7 C07          2.1290    -1.1820     3.5250 c3         1 DI1       0.148800
      8 C08          1.6730    -1.2540     2.0660 c3         1 DI1       0.151800
      9 C09          4.0680    -0.9440     4.9570 c3         1 DI1       0.175100
     10 C10          3.9160    -2.3240     5.5430 ca         1 DI1      -0.000300
     11 C11          2.8440    -2.6040     6.3740 ca         1 DI1      -0.117000
     12 C12          2.7000    -3.8650     6.9150 ca         1 DI1      -0.054000
     13 C13          3.6350    -4.8590     6.6230 ca         1 DI1      -0.170600
     14 C14          4.7130    -4.5690     5.7840 ca         1 DI1       0.020000
     15 C15          4.8430    -3.3050     5.2460 ca         1 DI1      -0.200300
     16 C16          6.0030    -2.9920     4.3350 c3         1 DI1       0.648200
     17 F17          6.7980    -4.1330     4.1840 f          1 DI1      -0.204967
     18 F18          5.5190    -2.5930     3.0850 f          1 DI1      -0.204967
     19 F19          6.7670    -1.9610     4.8910 f          1 DI1      -0.204967
     20 C20          3.4870    -6.2110     7.2000 c          1 DI1       0.585700
     21 N21          2.4450    -6.4880     8.0090 ns         1 DI1      -0.034100
     22 C22          2.2570    -7.7890     8.4870 ca         1 DI1      -0.062400
     23 C23          3.3550    -8.5840     8.7910 ca         1 DI1      -0.133000
     24 C24          3.1690    -9.8690     9.2630 ca         1 DI1      -0.048000
     25 C25          1.8910   -10.3670     9.4330 ca         1 DI1      -0.130300
     26 C26          1.6930   -11.7690     9.9490 c3         1 DI1       0.073200
     27 C27          0.7910    -9.5780     9.1320 ca         1 DI1       0.154100
     28 C28          0.9730    -8.2850     8.6630 ca         1 DI1      -0.229000
     29 O29         -0.4650   -10.0680     9.3000 os         1 DI1      -0.210200
     30 C30         -1.5100    -9.3050     8.8830 ca         1 DI1       0.087100
     31 C31         -1.6930    -9.0530     7.5310 ca         1 DI1      -0.105000
     32 C32         -2.7520    -8.2790     7.1040 ca         1 DI1      -0.104000
     33 C33         -3.6470    -7.7450     8.0290 ca         1 DI1      -0.110400
     34 C34         -3.4550    -8.0030     9.3810 ca         1 DI1      -0.136300
     35 C35         -4.5740    -7.2970    10.1110 c3         1 DI1      -0.047100
     36 C36         -5.3760    -6.6370     9.0100 c          1 DI1       0.608500
     37 N37         -4.7780    -6.9440     7.8460 ns         1 DI1      -0.011100
     38 O38         -6.3720    -5.9600     9.1500 o          1 DI1      -0.644500
     39 C39         -2.4030    -8.7800     9.8080 ca         1 DI1      -0.059000
     40 O40          4.3030    -7.0750     6.9430 o          1 DI1      -0.628100
     41 H011        -0.3610     0.5530     0.8590 hc         1 DI1       0.006700
     42 H012        -0.3610    -1.0200     0.0490 hc         1 DI1       0.006700
     43 H013        -0.3610     0.4670    -0.9080 hc         1 DI1       0.006700
     44 H021         1.8910    -0.8840    -0.5110 h1         1 DI1       0.007700
     45 H022         1.8910     0.8850    -0.5110 h1         1 DI1       0.007700
     46 H041         3.9840    -0.5740     0.9330 h1         1 DI1       0.017950
     47 H042         3.6960     1.1750     0.9360 h1         1 DI1       0.017950
     48 H081         2.1700    -2.0810     1.5730 h1         1 DI1       0.017950
     49 H082         0.6000    -1.3990     2.0300 h1         1 DI1       0.017950
     50 H051         3.4270     1.1370     3.3830 h1         1 DI1       0.015950
     51 H052         4.9980     0.4550     2.9250 h1         1 DI1       0.015950
     52 H071         1.6150    -0.3690     4.0230 h1         1 DI1       0.015950
     53 H072         1.9010    -2.1180     4.0210 h1         1 DI1       0.015950
     54 H091         5.1130    -0.6580     4.9710 h1         1 DI1       0.028700
     55 H092         3.4930    -0.2370     5.5420 h1         1 DI1       0.028700
     56 H11          2.1190    -1.8320     6.6000 ha         1 DI1       0.117000
     57 H12          1.8610    -4.0840     7.5650 ha         1 DI1       0.103000
     58 H14          5.4420    -5.3360     5.5520 ha         1 DI1       0.146000
     59 H21          1.8270    -5.7550     8.2980 hn         1 DI1       0.171500
     60 H23          4.3570    -8.1950     8.6580 ha         1 DI1       0.148000
     61 H28          0.1150    -7.6670     8.4270 ha         1 DI1       0.128000
     62 H24          4.0270   -10.4880     9.4990 ha         1 DI1       0.111000
     63 H261         1.1180   -12.3400     9.2300 hc         1 DI1       0.009367
     64 H262         1.1610   -11.7350    10.8920 hc         1 DI1       0.009367
     65 H263         2.6580   -12.2390    10.0950 hc         1 DI1       0.009367
     66 H31         -1.0100    -9.4790     6.8060 ha         1 DI1       0.125000
     67 H39         -2.3100    -9.0380    10.8560 ha         1 DI1       0.120000
     68 H32         -2.8880    -8.0870     6.0470 ha         1 DI1       0.110000
     69 H37         -5.1040    -6.6350     6.9520 hn         1 DI1       0.177500
     70 H351        -5.1860    -8.0120    10.6480 hc         1 DI1       0.055200
     71 H352        -4.1720    -6.5500    10.7850 hc         1 DI1       0.055200
@<TRIPOS>BOND
     1     1     2 1   
     2     1    41 1   
     3     1    42 1   
     4     1    43 1   
     5     2     3 1   
     6     2    44 1   
     7     2    45 1   
     8     3     4 1   
     9     3     8 1   
    10     4     5 1   
    11     4    46 1   
    12     4    47 1   
    13     5     6 1   
    14     5    50 1   
    15     5    51 1   
    16     6     7 1   
    17     6     9 1   
    18     7     8 1   
    19     7    52 1   
    20     7    53 1   
    21     8    48 1   
    22     8    49 1   
    23     9    10 1   
    24     9    54 1   
    25     9    55 1   
    26    10    11 ar  
    27    10    15 ar  
    28    11    12 ar  
    29    11    56 1   
    30    12    13 ar  
    31    12    57 1   
    32    13    14 ar  
    33    13    20 1   
    34    14    15 ar  
    35    14    58 1   
    36    15    16 1   
    37    16    17 1   
    38    16    18 1   
    39    16    19 1   
    40    20    21 1   
    41    20    40 2   
    42    21    22 1   
    43    21    59 1   
    44    22    23 ar  
    45    22    28 ar  
    46    23    24 ar  
    47    23    60 1   
    48    24    25 ar  
    49    24    62 1   
    50    25    26 1   
    51    25    27 ar  
    52    26    63 1   
    53    26    64 1   
    54    26    65 1   
    55    27    28 ar  
    56    27    29 1   
    57    28    61 1   
    58    29    30 1   
    59    30    31 ar  
    60    30    39 ar  
    61    31    32 ar  
    62    31    66 1   
    63    32    33 ar  
    64    32    68 1   
    65    33    34 ar  
    66    33    37 1   
    67    34    35 1   
    68    34    39 ar  
    69    35    36 1   
    70    35    70 1   
    71    35    71 1   
    72    36    37 1   
    73    36    38 2   
    74    37    69 1   
    75    39    67 1   
@<TRIPOS>SUBSTRUCTURE
     1 DI1         1 TEMP              0 ****  ****    0 ROOT
