@<TRIPOS>MOLECULE
DI6
   19    19     1     0     0
SMALL
bcc


@<TRIPOS>ATOM
      1 N1           0.0000     0.0000     0.0000 ns         1 DI6      -0.177500
      2 C2           1.3480     0.0000     0.0000 c          1 DI6       0.618500
      3 O2           2.0790    -0.0010    -0.9660 o          1 DI6      -0.627500
      4 C3           1.7580     0.0000     1.4590 c3         1 DI6      -0.098300
      5 N4           0.4730     0.0010     2.1800 ns         1 DI6      -0.186900
      6 C5          -0.4930     0.0010     1.2440 c          1 DI6       0.603500
      7 O5          -1.6810     0.0010     1.5000 o          1 DI6      -0.732500
      8 C6           2.5620    -1.2580     1.7930 c3         1 DI6      -0.013400
      9 C7           3.0680    -1.1720     3.2340 c3         1 DI6      -0.138400
     10 C8           3.8600    -2.4120     3.5620 c          1 DI6       0.980600
     11 O9           4.0040    -3.2750     2.7300 o          1 DI6      -0.896300
     12 O10          4.4040    -2.5570     4.7810 o          1 DI6      -0.896300
     13 HN1         -0.5620    -0.0000    -0.8280 hn         1 DI6       0.193500
     14 H3           2.3230     0.8940     1.6930 h1         1 DI6       0.054700
     15 HN4          0.3450     0.0010     3.1730 hn         1 DI6       0.224500
     16 H61          3.4060    -1.3370     1.1180 hc         1 DI6       0.041700
     17 H62          1.9300    -2.1310     1.6840 hc         1 DI6       0.041700
     18 H71          2.2240    -1.0930     3.9090 hc         1 DI6       0.004200
     19 H72          3.7010    -0.3000     3.3440 hc         1 DI6       0.004200
@<TRIPOS>BOND
     1     1     2 1   
     2     1     6 1   
     3     1    13 1   
     4     2     3 2   
     5     2     4 1   
     6     4     5 1   
     7     4     8 1   
     8     4    14 1   
     9     5     6 1   
    10     5    15 1   
    11     6     7 2   
    12     8     9 1   
    13     8    16 1   
    14     8    17 1   
    15     9    10 1   
    16     9    18 1   
    17     9    19 1   
    18    10    11 1   
    19    10    12 1   
@<TRIPOS>SUBSTRUCTURE
     1 DI6         1 TEMP              0 ****  ****    0 ROOT
