@<TRIPOS>MOLECULE
DI9
   36    37     1     0     0
SMALL
bcc


@<TRIPOS>ATOM
      1 CAB          0.0000     0.0000     0.0000 c3         1 DI9      -0.042400
      2 CAJ          1.5430     0.0000     0.0000 c3         1 DI9      -0.014900
      3 CAK          1.9230     0.0000     1.5020 c3         1 DI9      -0.014900
      4 CAL          0.8510     0.9300     2.1250 c3         1 DI9      -0.042400
      5 CAC         -0.4390     0.5910     1.3500 c3         1 DI9       0.177100
      6 OAD         -1.2090     1.7770     1.1390 os         1 DI9      -0.373200
      7 PAE         -2.6580     1.5140     1.7880 p5         1 DI9       0.992400
      8 NAM         -3.4890     0.3800     0.8640 nz         1 DI9      -0.188700
      9 OAA         -2.4950     1.0030     3.1680 o          1 DI9      -0.568300
     10 OAF         -3.4890     2.8930     1.8210 os         1 DI9      -0.373200
     11 CAG         -4.5920     2.6890     2.7060 c3         1 DI9       0.177100
     12 CAH         -4.5230     3.6900     3.8730 c3         1 DI9      -0.042400
     13 CAI         -5.8100     4.5360     3.8050 c3         1 DI9      -0.014900
     14 CAO         -6.8130     3.6410     3.0370 c3         1 DI9      -0.014900
     15 CAN         -5.9190     2.9630     1.9690 c3         1 DI9      -0.042400
     16 HAB1        -0.3700    -1.0140    -0.0980 hc         1 DI9       0.029575
     17 HAB2        -0.3700     0.6160    -0.8110 hc         1 DI9       0.029575
     18 HAJ1         1.9210     0.8920    -0.4850 hc         1 DI9       0.030450
     19 HAJ2         1.9210    -0.8920    -0.4850 hc         1 DI9       0.030450
     20 HAK1         2.9150     0.4100     1.6450 hc         1 DI9       0.030450
     21 HAK2         1.8480    -0.9990     1.9150 hc         1 DI9       0.030450
     22 HAL1         0.7280     0.7110     3.1790 hc         1 DI9       0.029575
     23 HAL2         1.1200     1.9690     1.9750 hc         1 DI9       0.029575
     24 HAC         -1.0190    -0.1400     1.9010 h1         1 DI9       0.010200
     25 HAM1        -3.0040    -0.4950     0.8940 hn         1 DI9       0.295467
     26 HAM2        -4.4120     0.2620     1.2330 hn         1 DI9       0.295467
     27 HAG         -4.5850     1.6750     3.0890 h1         1 DI9       0.010200
     28 HAH1        -4.4800     3.1560     4.8150 hc         1 DI9       0.029575
     29 HAH2        -3.6540     4.3280     3.7620 hc         1 DI9       0.029575
     30 HAI1        -5.6290     5.4540     3.2600 hc         1 DI9       0.030450
     31 HAI2        -6.1770     4.7450     4.8020 hc         1 DI9       0.030450
     32 HAO1        -7.2480     2.9000     3.6980 hc         1 DI9       0.030450
     33 HAO2        -7.5800     4.2440     2.5670 hc         1 DI9       0.030450
     34 HAN1        -5.7560     3.6320     1.1340 hc         1 DI9       0.029575
     35 HAN2        -6.3660     2.0330     1.6380 hc         1 DI9       0.029575
     36 HAM3        -3.5540     0.7020    -0.0810 hn         1 DI9       0.295467
@<TRIPOS>BOND
     1     1     2 1   
     2     1     5 1   
     3     1    16 1   
     4     1    17 1   
     5     2     3 1   
     6     2    18 1   
     7     2    19 1   
     8     3     4 1   
     9     3    20 1   
    10     3    21 1   
    11     4     5 1   
    12     4    22 1   
    13     4    23 1   
    14     5     6 1   
    15     5    24 1   
    16     6     7 1   
    17     7     8 1   
    18     7     9 2   
    19     7    10 1   
    20     8    25 1   
    21     8    26 1   
    22     8    36 1   
    23    10    11 1   
    24    11    12 1   
    25    11    15 1   
    26    11    27 1   
    27    12    13 1   
    28    12    28 1   
    29    12    29 1   
    30    13    14 1   
    31    13    30 1   
    32    13    31 1   
    33    14    15 1   
    34    14    32 1   
    35    14    33 1   
    36    15    34 1   
    37    15    35 1   
@<TRIPOS>SUBSTRUCTURE
     1 DI9         1 TEMP              0 ****  ****    0 ROOT
