@<TRIPOS>MOLECULE
molecule
   32    31     1     0     0
SMALL
bcc


@<TRIPOS>ATOM
      1 N1           0.0000     0.0000     0.0000 nz         1 DIA      -0.810100
      2 C1           1.4690     0.0000     0.0000 c3         1 DIA       0.093300
      3 C2           1.9810     0.0000     1.4410 c3         1 DIA      -0.111900
      4 C3           3.5110    -0.0000     1.4400 c3         1 DIA      -0.074400
      5 C4           4.0230    -0.0000     2.8800 c3         1 DIA      -0.078400
      6 C5           5.5520    -0.0000     2.8790 c3         1 DIA      -0.078400
      7 C6           6.0640    -0.0000     4.3190 c3         1 DIA      -0.074400
      8 C7           7.5930    -0.0000     4.3180 c3         1 DIA      -0.111900
      9 C8           8.1060    -0.0000     5.7590 c3         1 DIA       0.093300
     10 N8           9.5740    -0.0000     5.7590 nz         1 DIA      -0.810100
     11 HN11        -0.3340    -0.8170     0.4720 hn         1 DIA       0.461133
     12 HN12        -0.3340     0.8170     0.4720 hn         1 DIA       0.461133
     13 HC11         1.8290     0.8840    -0.5110 hx         1 DIA       0.114700
     14 HC12         1.8290    -0.8840    -0.5110 hx         1 DIA       0.114700
     15 HC21         1.6200    -0.8840     1.9520 hc         1 DIA       0.068200
     16 HC22         1.6200     0.8840     1.9520 hc         1 DIA       0.068200
     17 HC31         3.8710     0.8840     0.9280 hc         1 DIA       0.060700
     18 HC32         3.8710    -0.8840     0.9280 hc         1 DIA       0.060700
     19 HC41         3.6620    -0.8840     3.3910 hc         1 DIA       0.055700
     20 HC42         3.6620     0.8840     3.3910 hc         1 DIA       0.055700
     21 HC51         5.9120    -0.8840     2.3680 hc         1 DIA       0.055700
     22 HC52         5.9120     0.8840     2.3680 hc         1 DIA       0.055700
     23 HC61         5.7030    -0.8840     4.8300 hc         1 DIA       0.060700
     24 HC62         5.7030     0.8840     4.8300 hc         1 DIA       0.060700
     25 HC71         7.9540     0.8840     3.8070 hc         1 DIA       0.068200
     26 HC72         7.9540    -0.8840     3.8070 hc         1 DIA       0.068200
     27 HC81         7.7450    -0.8840     6.2700 hx         1 DIA       0.114700
     28 HC82         7.7450     0.8840     6.2700 hx         1 DIA       0.114700
     29 HN81         9.9080     0.8170     5.2870 hn         1 DIA       0.461133
     30 HN82         9.9080    -0.0000     6.7030 hn         1 DIA       0.461133
     31 H13         -0.3340     0.0000    -0.9440 hn         1 DIA       0.461133
     32 H83          9.9080    -0.8170     5.2870 hn         1 DIA       0.461133
@<TRIPOS>BOND
     1     1     2 1
     2     1    11 1
     3     1    12 1
     4     2     3 1
     5     2    13 1
     6     2    14 1
     7     3     4 1
     8     3    15 1
     9     3    16 1
    10     4     5 1
    11     4    17 1
    12     4    18 1
    13     5     6 1
    14     5    19 1
    15     5    20 1
    16     6     7 1
    17     6    21 1
    18     6    22 1
    19     7     8 1
    20     7    23 1
    21     7    24 1
    22     8     9 1
    23     8    25 1
    24     8    26 1
    25     9    10 1
    26     9    27 1
    27     9    28 1
    28    10    29 1
    29    10    30 1
    30    31     1 1
    31    32    10 1
@<TRIPOS>SUBSTRUCTURE
     1 DIA         1 TEMP              0 ****  ****    0 ROOT
