@<TRIPOS>MOLECULE
DIB
   22    21     1     0     0
SMALL
bcc


@<TRIPOS>ATOM
      1 N            0.0000     0.0000     0.0000 nz         1 DIB       0.088400
      2 CA           1.4680     0.0000     0.0000 c3         1 DIB      -0.053200
      3 CB           1.9800     0.0000     1.4410 c3         1 DIB      -0.049400
      4 CG           3.5090    -0.0000     1.4410 c3         1 DIB       0.151800
      5 ND           4.0000    -0.0000     2.8250 n3         1 DIB      -0.517600
      6 CE1          5.4660     0.0000     2.7540 c3         1 DIB       0.166100
      7 CE2          3.6060     1.2870     3.4120 c3         1 DIB       0.166100
      8 H           -0.3340     0.8250     0.4570 hn         1 DIB       0.223800
      9 HN2         -0.3340    -0.0160    -0.9430 hn         1 DIB       0.223800
     10 HA1          1.8290     0.8840    -0.5110 hx         1 DIB       0.085200
     11 HA2          1.8290    -0.8840    -0.5110 hx         1 DIB       0.085200
     12 HB1          1.6190     0.8850     1.9520 hc         1 DIB       0.044200
     13 HB2          1.6190    -0.8840     1.9520 hc         1 DIB       0.044200
     14 HG1          3.8690    -0.8850     0.9300 h1         1 DIB       0.022700
     15 HG2          3.8700     0.8840     0.9290 h1         1 DIB       0.022700
     16 HE11         5.8760     0.0030     3.7570 h1         1 DIB       0.012033
     17 HE12         5.8020     0.8840     2.2240 h1         1 DIB       0.012033
     18 HE13         5.8030    -0.8850     2.2290 h1         1 DIB       0.012033
     19 HE21         2.5810     1.2270     3.7580 h1         1 DIB       0.012033
     20 HE22         4.2560     1.5170     4.2470 h1         1 DIB       0.012033
     21 HE23         3.6890     2.0660     2.6640 h1         1 DIB       0.012033
     22 HN3         -0.3340    -0.7930     0.5110 hn         1 DIB       0.223800
@<TRIPOS>BOND
     1     1     2 1   
     2     1     8 1   
     3     1     9 1   
     4     1    22 1   
     5     2     3 1   
     6     2    10 1   
     7     2    11 1   
     8     3     4 1   
     9     3    12 1   
    10     3    13 1   
    11     4     5 1   
    12     4    14 1   
    13     4    15 1   
    14     5     6 1   
    15     5     7 1   
    16     6    16 1   
    17     6    17 1   
    18     6    18 1   
    19     7    19 1   
    20     7    20 1   
    21     7    21 1   
@<TRIPOS>SUBSTRUCTURE
     1 DIB         1 TEMP              0 ****  ****    0 ROOT
