@<TRIPOS>MOLECULE
DIC
   17    18     1     0     0
SMALL
bcc


@<TRIPOS>ATOM
      1 C1          0.0070    0.0010   -0.0170 ca        1 DIC     -0.085000
      2 C2          1.3970    0.0010   -0.0240 ca        1 DIC     -0.128000
      3 C3          2.1090    0.0000    1.1870 ca        1 DIC      0.019200
      4 C4          1.3900   -0.0000    2.4000 ca        1 DIC     -0.169600
      5 C5         -0.0120    0.0000    2.3970 ca        1 DIC     -0.058000
      6 C6         -0.7000    0.0010    1.1900 ca        1 DIC     -0.142000
      7 C7          2.1050   -0.0010    3.6710 c         1 DIC      0.738200
      8 O7          1.6710   -0.0010    4.8200 o         1 DIC     -0.549500
      9 C8          3.5550   -0.0000    1.2600 cc        1 DIC     -0.062800
     10 C9          4.1730   -0.0000    2.4740 cd        1 DIC      0.203500
     11 O1          3.5020   -0.0010    3.6730 os        1 DIC     -0.315200
     12 CL1         4.4680    0.0000   -0.1660 cl        1 DIC     -0.052400
     13 CL2         5.8460   -0.0010    2.7070 cl        1 DIC     -0.004400
     14 H1         -0.5420    0.0010   -0.9710 ha        1 DIC      0.143000
     15 H2          1.9420    0.0010   -0.9810 ha        1 DIC      0.155000
     16 H5         -0.5500   -0.0000    3.3600 ha        1 DIC      0.161000
     17 H6         -1.8000    0.0010    1.1830 ha        1 DIC      0.146000
@<TRIPOS>BOND
     1    1    2 ar  
     2    1    6 ar  
     3    1   14 1   
     4    2    3 ar  
     5    2   15 1   
     6    3    4 ar  
     7    3    9 1   
     8    4    5 ar  
     9    4    7 1   
    10    5    6 ar  
    11    5   16 1   
    12    6   17 1   
    13    7    8 2   
    14    7   11 1   
    15    9   10 2   
    16    9   12 1   
    17   10   11 1   
    18   10   13 1   
@<TRIPOS>SUBSTRUCTURE
     1 DIC         1 TEMP              0 ****  ****    0 ROOT
