@<TRIPOS>MOLECULE
molecule
   54    55     1     0     0
SMALL
bcc


@<TRIPOS>ATOM
      1 C4           0.0000     0.0000     0.0000 ca         1 DID      -0.238400
      2 C5           1.3950     0.0000     0.0000 ca         1 DID      -0.043750
      3 C6           2.0820     0.0000     1.1950 ca         1 DID      -0.183000
      4 C1           1.3870     0.0000     2.3970 ca         1 DID       0.184100
      5 C2          -0.0020     0.0000     2.4000 ca         1 DID      -0.183000
      6 C3          -0.6950     0.0040     1.2100 ca         1 DID      -0.043750
      7 C9          -0.7400     0.0000    -1.2810 ce         1 DID       0.547300
      8 N1          -2.1190     0.0000    -1.2790 nz         1 DID      -0.801600
      9 N2          -0.0910     0.0000    -2.4100 n2         1 DID      -0.685600
     10 O1           2.0670    -0.0000     3.5730 os         1 DID      -0.269900
     11 C7           1.0900     0.0000     4.6160 c3         1 DID       0.106400
     12 C8           1.7930    -0.0000     5.9740 c3         1 DID      -0.085400
     13 C10          0.7480     0.0000     7.0900 c3         1 DID      -0.078400
     14 C11          1.4520    -0.0000     8.4480 c3         1 DID      -0.078400
     15 C8'          0.4060     0.0000     9.5640 c3         1 DID      -0.085400
     16 C7'          1.1100    -0.0000    10.9220 c3         1 DID       0.106400
     17 O1'          0.1330     0.0000    11.9650 os         1 DID      -0.269900
     18 C1'          0.8120    -0.0000    13.1410 ca         1 DID       0.184100
     19 C6'          2.2000    -0.0050    13.1380 ca         1 DID      -0.183000
     20 C5'          2.8940     0.0000    14.3290 ca         1 DID      -0.043750
     21 C4'          2.1990     0.0000    15.5380 ca         1 DID      -0.238400
     22 C3'          0.8040     0.0000    15.5380 ca         1 DID      -0.043750
     23 C2'          0.1170     0.0000    14.3430 ca         1 DID      -0.183000
     24 C9'          2.9400     0.0000    16.8190 ce         1 DID       0.547300
     25 N1'          4.3180     0.0000    16.8180 nz         1 DID      -0.801600
     26 N2'          2.2900     0.0010    17.9480 n2         1 DID      -0.685600
     27 H5           1.9370    -0.0020    -0.9380 ha         1 DID       0.142000
     28 H6           3.1650    -0.0000     1.1960 ha         1 DID       0.171500
     29 H2          -0.5400     0.0020     3.3400 ha         1 DID       0.171500
     30 H3          -1.7780     0.0040     1.2140 ha         1 DID       0.142000
     31 HN11        -2.4520     0.8180    -0.8090 hn         1 DID       0.464467
     32 HN12        -2.4540    -0.0020    -2.2220 hn         1 DID       0.464467
     33 HN2         -0.5920     0.0000    -3.2760 hn         1 DID       0.434400
     34 H71          0.4710     0.8850     4.5300 h1         1 DID       0.046700
     35 H72          0.4710    -0.8850     4.5300 h1         1 DID       0.046700
     36 H81          2.4130     0.8840     6.0590 hc         1 DID       0.064700
     37 H82          2.4130    -0.8840     6.0590 hc         1 DID       0.064700
     38 H101         0.1290     0.8840     7.0040 hc         1 DID       0.048700
     39 H102         0.1290    -0.8840     7.0040 hc         1 DID       0.048700
     40 H111         2.0710     0.8840     8.5340 hc         1 DID       0.048700
     41 H112         2.0710    -0.8840     8.5340 hc         1 DID       0.048700
     42 H8'1        -0.2140     0.8850     9.4790 hc         1 DID       0.064700
     43 H8'2        -0.2140    -0.8850     9.4790 hc         1 DID       0.064700
     44 H7'1         1.7290     0.8850    11.0080 h1         1 DID       0.046700
     45 H7'2         1.7290    -0.8850    11.0080 h1         1 DID       0.046700
     46 H6'          2.7390    -0.0050    12.1980 ha         1 DID       0.171500
     47 H5'          3.9770    -0.0020    14.3260 ha         1 DID       0.142000
     48 H3'          0.2620     0.0000    16.4760 ha         1 DID       0.142000
     49 H2'         -0.9660     0.0000    14.3420 ha         1 DID       0.171500
     50 H1'1         4.6520    -0.8170    16.3460 hn         1 DID       0.464467
     51 H1'2         4.6520     0.8170    16.3460 hn         1 DID       0.464467
     52 H1           2.7910     0.0010    18.8140 hn         1 DID       0.434400
     53 H13         -2.4520    -0.8160    -0.8050 hn         1 DID       0.464467
     54 H1'3         4.6520     0.0060    17.7610 hn         1 DID       0.464467
@<TRIPOS>BOND
     1     1     2 ar
     2     1     6 ar
     3     1     7 1
     4     2     3 ar
     5     2    27 1
     6     3     4 ar
     7     3    28 1
     8     4     5 ar
     9     4    10 1
    10     5     6 ar
    11     5    29 1
    12     6    30 1
    13     7     8 1
    14     7     9 2
    15     8    31 1
    16     8    32 1
    17     9    33 1
    18    10    11 1
    19    11    12 1
    20    11    34 1
    21    11    35 1
    22    12    13 1
    23    12    36 1
    24    12    37 1
    25    13    14 1
    26    13    38 1
    27    13    39 1
    28    14    15 1
    29    14    40 1
    30    14    41 1
    31    15    16 1
    32    15    42 1
    33    15    43 1
    34    16    17 1
    35    16    44 1
    36    16    45 1
    37    17    18 1
    38    18    19 ar
    39    18    23 ar
    40    19    20 ar
    41    19    46 1
    42    20    21 ar
    43    20    47 1
    44    21    22 ar
    45    21    24 1
    46    22    23 ar
    47    22    48 1
    48    23    49 1
    49    24    25 1
    50    24    26 2
    51    25    50 1
    52    25    51 1
    53    26    52 1
    54    53     8 1
    55    54    25 1
@<TRIPOS>SUBSTRUCTURE
     1 DID         1 TEMP              0 ****  ****    0 ROOT
