@<TRIPOS>MOLECULE
molecule
   25    25     1     0     0
SMALL
bcc


@<TRIPOS>ATOM
      1 C10          0.0000     0.0000     0.0000 c3         1 DIE      -0.088100
      2 C9           1.5300     0.0000     0.0000 c3         1 DIE      -0.033600
      3 C6           2.0330     0.0000     1.4210 ca         1 DIE      -0.100800
      4 C5           2.3620     1.1930     2.0370 ca         1 DIE      -0.119500
      5 C4           2.8220     1.1940     3.3410 ca         1 DIE      -0.132000
      6 C3           2.9540     0.0030     4.0310 ca         1 DIE      -0.119500
      7 C2           2.6270    -1.1910     3.4200 ca         1 DIE      -0.100800
      8 C7           2.7720    -2.4890     4.1720 c3         1 DIE      -0.033600
      9 C8           4.1290    -3.1170     3.8510 c3         1 DIE      -0.088100
     10 C1           2.1590    -1.1950     2.1130 ca         1 DIE       0.106100
     11 O1           1.8310    -2.3680     1.5100 oh         1 DIE      -0.519100
     12 H10         -0.3610    -1.0180    -0.0770 hc         1 DIE       0.036700
     13 H10A        -0.3610     0.5760    -0.8430 hc         1 DIE       0.036700
     14 H10B        -0.3610     0.4420     0.9210 hc         1 DIE       0.036700
     15 H9           1.8910    -0.8840    -0.5110 hc         1 DIE       0.049200
     16 H9A          1.8910     0.8840    -0.5110 hc         1 DIE       0.049200
     17 H5           2.2590     2.1270     1.4980 ha         1 DIE       0.132500
     18 H4           3.0800     2.1300     3.8220 ha         1 DIE       0.130000
     19 H3           3.3150     0.0070     5.0520 ha         1 DIE       0.132500
     20 H7           2.7050    -2.2990     5.2370 hc         1 DIE       0.049200
     21 H7A          1.9810    -3.1680     3.8770 hc         1 DIE       0.049200
     22 H8           4.1480    -3.4250     2.8120 hc         1 DIE       0.036700
     23 H8A          4.2880    -3.9790     4.4870 hc         1 DIE       0.036700
     24 H8B          4.9140    -2.3900     4.0250 hc         1 DIE       0.036700
     25 HO1          0.9720    -2.6370     1.7920 ho         1 DIE       0.417000
@<TRIPOS>BOND
     1     1     2 1
     2     2     3 1
     3     3     4 ar
     4     3    10 ar
     5     4     5 ar
     6     5     6 ar
     7     6     7 ar
     8     7     8 1
     9     7    10 ar
    10     8     9 1
    11    10    11 1
    12     1    12 1
    13     1    13 1
    14     1    14 1
    15     2    15 1
    16     2    16 1
    17     4    17 1
    18     5    18 1
    19     6    19 1
    20     8    20 1
    21     8    21 1
    22     9    22 1
    23     9    23 1
    24     9    24 1
    25    11    25 1
@<TRIPOS>SUBSTRUCTURE
     1 DIE         1 TEMP              0 ****  ****    0 ROOT
