@<TRIPOS>MOLECULE
DIE
   25    25     1     0     0
SMALL
bcc


@<TRIPOS>ATOM
      1 C10        -0.0770   -0.1120    0.0530 c3        1 DIE     -0.092100
      2 C9          1.4230    0.0650    0.0900 c3        1 DIE     -0.032600
      3 C6          1.9650    0.0330    1.4760 ca        1 DIE     -0.127800
      4 C5          2.3210    1.2290    2.1080 ca        1 DIE     -0.098500
      5 C4          2.8410    1.2270    3.3990 ca        1 DIE     -0.161000
      6 C3          3.0150    0.0240    4.0810 ca        1 DIE     -0.098500
      7 C2          2.6720   -1.1910    3.4860 ca        1 DIE     -0.127800
      8 C7          2.8520   -2.4760    4.2150 c3        1 DIE     -0.032600
      9 C8          4.1100   -3.1950    3.7910 c3        1 DIE     -0.092100
     10 C1          2.1430   -1.1750    2.1760 ca        1 DIE      0.130100
     11 O1          1.8270   -2.4060    1.6440 oh        1 DIE     -0.501100
     12 H10        -0.3800   -1.0730    0.5350 hc        1 DIE      0.037033
     13 H10A       -0.4370   -0.1170   -1.0040 hc        1 DIE      0.037033
     14 H10B       -0.5830    0.7230    0.5960 hc        1 DIE      0.037033
     15 H9          1.9150   -0.7350   -0.5280 hc        1 DIE      0.048700
     16 H9A         1.6870    1.0450   -0.3920 hc        1 DIE      0.048700
     17 H5          2.1880    2.1820    1.5730 ha        1 DIE      0.132500
     18 H4          3.1150    2.1760    3.8820 ha        1 DIE      0.132000
     19 H3          3.4260    0.0270    5.1020 ha        1 DIE      0.132500
     20 H7          2.8840   -2.2820    5.3200 hc        1 DIE      0.048700
     21 H7A         1.9640   -3.1360    4.0130 hc        1 DIE      0.048700
     22 H8          5.0130   -2.5720    3.9980 hc        1 DIE      0.037033
     23 H8A         4.2070   -4.1580    4.3470 hc        1 DIE      0.037033
     24 H8B         4.0750   -3.4170    2.6960 hc        1 DIE      0.037033
     25 HO1         1.3990   -2.2690    0.7870 ho        1 DIE      0.421000
@<TRIPOS>BOND
     1    1    2 1   
     2    1   12 1   
     3    1   13 1   
     4    1   14 1   
     5    2    3 1   
     6    2   15 1   
     7    2   16 1   
     8    3    4 ar  
     9    3   10 ar  
    10    4    5 ar  
    11    4   17 1   
    12    5    6 ar  
    13    5   18 1   
    14    6    7 ar  
    15    6   19 1   
    16    7    8 1   
    17    7   10 ar  
    18    8    9 1   
    19    8   20 1   
    20    8   21 1   
    21    9   22 1   
    22    9   23 1   
    23    9   24 1   
    24   10   11 1   
    25   11   25 1   
@<TRIPOS>SUBSTRUCTURE
     1 DIE         1 TEMP              0 ****  ****    0 ROOT
