@<TRIPOS>MOLECULE
molecule
   29    30     1     0     0
SMALL
bcc


@<TRIPOS>ATOM
      1 C1           0.0000     0.0000     0.0000 ca         1 DIF      -0.119000
      2 C2           1.3820     0.0000     0.0000 ca         1 DIF       0.005400
      3 Cl2          2.2510     0.0010    -1.5020 cl         1 DIF      -0.075900
      4 C3           2.0740     0.0000     1.2040 ca         1 DIF       0.193600
      5 C4           1.3740    -0.0070     2.4040 ca         1 DIF       0.005400
      6 Cl4          2.2340    -0.0090     3.9120 cl         1 DIF      -0.075900
      7 C5          -0.0080    -0.0030     2.3960 ca         1 DIF      -0.119000
      8 C6          -0.6930    -0.0020     1.1950 ca         1 DIF      -0.147000
      9 N1           3.4730     0.0010     1.2090 nu         1 DIF      -0.681000
     10 C7           5.5570     1.0440     1.8330 ca         1 DIF      -0.057300
     11 C8           4.1680     1.0470     1.8170 ca         1 DIF       0.191600
     12 C9           3.4730     2.0890     2.4180 ca         1 DIF      -0.194000
     13 C10          4.1640     3.1230     3.0180 ca         1 DIF      -0.124000
     14 C11          5.5470     3.1190     3.0270 ca         1 DIF      -0.177000
     15 C12          6.2420     2.0800     2.4350 ca         1 DIF      -0.089000
     16 C14          6.5590    -1.1720     2.2050 c          1 DIF       0.886600
     17 O1           7.2220    -2.2850     1.8530 o          1 DIF      -0.840800
     18 O2           6.1580    -1.0410     3.3360 o          1 DIF      -0.840800
     19 H1          -0.5410     0.0010    -0.9390 ha         1 DIF       0.136500
     20 H5          -0.5550    -0.0060     3.3310 ha         1 DIF       0.136500
     21 H6          -1.7770     0.0000     1.1920 ha         1 DIF       0.128000
     22 HN1          3.9750    -0.7510     0.7820 hn         1 DIF       0.478800
     23 H9           2.3890     2.0930     2.4120 ha         1 DIF       0.118000
     24 H10          3.6230     3.9370     3.4850 ha         1 DIF       0.106000
     25 H11          6.0870     3.9320     3.4980 ha         1 DIF       0.106000
     26 H12          7.3260     2.0790     2.4450 ha         1 DIF       0.128000
     27 H131         5.7360    -0.4870     0.3650 hc         1 DIF       0.036700
     28 H132         7.2650     0.2790     0.8170 hc         1 DIF       0.036700
     29 C13          6.3150    -0.0870     1.1890 c3         1 DIF      -0.152100
@<TRIPOS>BOND
     1     1     2 ar
     2     1     8 ar
     3     1    19 1
     4     2     3 1
     5     2     4 ar
     6     4     5 ar
     7     4     9 1
     8     5     6 1
     9     5     7 ar
    10     7     8 ar
    11     7    20 1
    12     8    21 1
    13     9    11 1
    14     9    22 1
    15    10    11 ar
    16    10    15 ar
    17    10    29 1
    18    11    12 ar
    19    12    13 ar
    20    12    23 1
    21    13    14 ar
    22    13    24 1
    23    14    15 ar
    24    14    25 1
    25    15    26 1
    26    29    16 1
    27    29    27 1
    28    29    28 1
    29    16    17 1
    30    16    18 1
@<TRIPOS>SUBSTRUCTURE
     1 DIF         1 TEMP              0 ****  ****    0 ROOT
