@<TRIPOS>MOLECULE
DIH
   36    38     1     0     0
SMALL
bcc


@<TRIPOS>ATOM
      1 O5'          0.0000     0.0000     0.0000 oh         1 DIH      -0.577800
      2 C5'          1.4290     0.0000     0.0000 c3         1 DIH       0.244400
      3 C4'          1.9380     0.0000     1.4430 c3         1 DIH      -0.081700
      4 C6'          3.4870     0.0010     1.4770 c3         1 DIH      -0.001200
      5 C3'          1.5760     1.3250     2.1520 c3         1 DIH       0.196100
      6 O3'          0.4330     1.1430     2.9890 oh         1 DIH      -0.549800
      7 C2'          2.8110     1.6780     3.0020 c3         1 DIH      -0.056200
      8 N1'          3.7970     0.5940     2.8040 nx         1 DIH       0.016600
      9 C10          5.1600     1.1420     2.8070 c3         1 DIH       0.114100
     10 C9           5.5030     1.6280     4.1920 cc         1 DIH      -0.273300
     11 C8           5.4630     2.9080     4.6170 cd         1 DIH      -0.262300
     12 N7           5.8380     2.9620     5.9240 na         1 DIH       0.529900
     13 C5           6.1270     1.6890     6.3560 cd         1 DIH      -0.431900
     14 C6           6.5550     1.1400     7.5830 c          1 DIH       0.639100
     15 O6           6.7460     1.8550     8.5530 o          1 DIH      -0.654500
     16 N1           6.7460    -0.1940     7.6580 ns         1 DIH       0.022600
     17 C2           6.5320    -0.9860     6.5750 cd         1 DIH       0.355800
     18 N3           6.1370    -0.5030     5.4320 nc         1 DIH      -0.561100
     19 C4           5.9150     0.8250     5.2760 cc         1 DIH       0.126400
     20 H1          -0.3140    -0.2470    -0.8540 ho         1 DIH       0.414000
     21 H2           1.7900     0.8850    -0.5110 h1         1 DIH      -0.002300
     22 H3           1.7900    -0.8850    -0.5100 h1         1 DIH      -0.002300
     23 H4           1.5460    -0.8460     1.9940 hc         1 DIH       0.081700
     24 H5           3.8850     0.6200     0.6820 hx         1 DIH       0.078200
     25 H6           3.8700    -1.0100     1.4130 hx         1 DIH       0.078200
     26 H7           1.3920     2.1020     1.4190 h1         1 DIH       0.043700
     27 H8          -0.0380     1.9570     3.0600 ho         1 DIH       0.416000
     28 H9           2.5340     1.7370     4.0470 hx         1 DIH       0.082200
     29 H10          3.2290     2.6210     2.6700 hx         1 DIH       0.082200
     30 H11          3.6960    -0.0970     3.5210 hn         1 DIH       0.275800
     31 H12          5.2190     1.9690     2.1090 hx         1 DIH       0.073200
     32 H13          5.8610     0.3700     2.5120 hx         1 DIH       0.073200
     33 H14          5.1800     3.7600     4.0110 h4         1 DIH       0.154000
     34 H15          5.8940     3.7930     6.4800 hn         1 DIH       0.135700
     35 H16          7.0500    -0.6040     8.5190 hn         1 DIH       0.199500
     36 H17          6.6940    -2.0530     6.6650 h5         1 DIH       0.019800
@<TRIPOS>BOND
     1     1     2 1   
     2     1    20 1   
     3     2     3 1   
     4     2    21 1   
     5     2    22 1   
     6     3     4 1   
     7     3     5 1   
     8     3    23 1   
     9     4     8 1   
    10     4    24 1   
    11     4    25 1   
    12     5     6 1   
    13     5     7 1   
    14     5    26 1   
    15     6    27 1   
    16     7     8 1   
    17     7    28 1   
    18     7    29 1   
    19     8     9 1   
    20     8    30 1   
    21     9    10 1   
    22     9    31 1   
    23     9    32 1   
    24    10    11 2   
    25    10    19 1   
    26    11    12 1   
    27    11    33 1   
    28    12    13 1   
    29    12    34 1   
    30    13    14 1   
    31    13    19 2   
    32    14    15 2   
    33    14    16 1   
    34    16    17 1   
    35    16    35 1   
    36    17    18 2   
    37    17    36 1   
    38    18    19 1   
@<TRIPOS>SUBSTRUCTURE
     1 DIH         1 TEMP              0 ****  ****    0 ROOT
