@<TRIPOS>MOLECULE
molecule
   36    38     1     0     0
SMALL
bcc


@<TRIPOS>ATOM
      1 O5'          0.0000     0.0000     0.0000 oh         1 DIH      -0.592800
      2 C5'          1.4290     0.0000     0.0000 c3         1 DIH       0.155400
      3 C4'          1.9380     0.0000     1.4430 c3         1 DIH      -0.094700
      4 C6'          3.4870     0.0010     1.4770 c3         1 DIH       0.106800
      5 C3'          1.5760     1.3250     2.1520 c3         1 DIH       0.143100
      6 O3'          0.4330     1.1430     2.9890 oh         1 DIH      -0.567800
      7 C2'          2.8110     1.6780     3.0020 c3         1 DIH       0.069800
      8 N1'          3.7970     0.5940     2.8040 nx         1 DIH      -0.655400
      9 C10          5.1600     1.1420     2.8070 c3         1 DIH       0.207100
     10 C9           5.5030     1.6280     4.1920 cc         1 DIH      -0.258300
     11 C8           5.4630     2.9080     4.6170 cd         1 DIH      -0.062300
     12 N7           5.8380     2.9620     5.9240 na         1 DIH      -0.092100
     13 C5           6.1270     1.6890     6.3560 cc         1 DIH      -0.213900
     14 C6           6.5550     1.1400     7.5830 c          1 DIH       0.721100
     15 O6           6.7460     1.8550     8.5530 o          1 DIH      -0.607500
     16 N1           6.7460    -0.1940     7.6580 ns         1 DIH      -0.453400
     17 C2           6.5320    -0.9860     6.5750 cc         1 DIH       0.522800
     18 N3           6.1370    -0.5030     5.4320 nd         1 DIH      -0.664100
     19 C4           5.9150     0.8250     5.2760 cd         1 DIH       0.153400
     20 H1          -0.3140    -0.2470    -0.8540 ho         1 DIH       0.428000
     21 H2           1.7900     0.8850    -0.5110 h1         1 DIH       0.036200
     22 H3           1.7900    -0.8850    -0.5100 h1         1 DIH       0.036200
     23 H4           1.5460    -0.8460     1.9940 hc         1 DIH       0.115700
     24 H5           3.8850     0.6200     0.6820 hx         1 DIH       0.106200
     25 H6           3.8700    -1.0100     1.4130 hx         1 DIH       0.106200
     26 H7           1.3920     2.1020     1.4190 h1         1 DIH       0.079700
     27 H8          -0.0380     1.9570     3.0600 ho         1 DIH       0.430000
     28 H9           2.5340     1.7370     4.0470 hx         1 DIH       0.105700
     29 H10          3.2290     2.6210     2.6700 hx         1 DIH       0.105700
     30 H11          3.6960    -0.0970     3.5210 hn         1 DIH       0.467800
     31 H12          5.2190     1.9690     2.1090 hx         1 DIH       0.103200
     32 H13          5.8610     0.3700     2.5120 hx         1 DIH       0.103200
     33 H14          5.1800     3.7600     4.0110 h4         1 DIH       0.182000
     34 H15          5.8940     3.7930     6.4800 hn         1 DIH       0.337700
     35 H16          7.0500    -0.6040     8.5190 hn         1 DIH       0.362500
     36 H17          6.6940    -2.0530     6.6650 h5         1 DIH       0.076800
@<TRIPOS>BOND
     1    15    14 2
     2    14    16 1
     3    14    13 1
     4    12    13 1
     5    12    11 1
     6    16    17 1
     7    13    19 2
     8    11    10 2
     9    17    18 2
    10    19    10 1
    11    19    18 1
    12    10     9 1
    13     9     8 1
    14     8     4 1
    15     8     7 1
    16     4     3 1
    17     7     5 1
    18     1     2 1
    19     2     3 1
    20     3     5 1
    21     5     6 1
    22     1    20 1
    23     2    21 1
    24     2    22 1
    25     3    23 1
    26     4    24 1
    27     4    25 1
    28     5    26 1
    29     6    27 1
    30     7    28 1
    31     7    29 1
    32     8    30 1
    33     9    31 1
    34     9    32 1
    35    11    33 1
    36    12    34 1
    37    16    35 1
    38    17    36 1
@<TRIPOS>SUBSTRUCTURE
     1 DIH         1 TEMP              0 ****  ****    0 ROOT
