@<TRIPOS>MOLECULE
molecule
   28    27     1     0     0
SMALL
bcc


@<TRIPOS>ATOM
      1 P1           0.0000     0.0000     0.0000 p5         1 DII       1.329300
      2 O1           1.4800     0.0000     0.0000 o          1 DII      -0.800300
      3 O2          -0.5350     0.0000     1.5170 os         1 DII      -0.526200
      4 C1           0.1500     1.0530     2.1990 c3         1 DII       0.148600
      5 C2          -0.8700     1.9950     2.8390 c3         1 DII      -0.102600
      6 C3           1.0470     0.4570     3.2850 c3         1 DII      -0.102600
      7 O3          -0.5370    -1.3120    -0.7600 os         1 DII      -0.526200
      8 C4           0.0270    -2.4390    -0.0870 c3         1 DII       0.148600
      9 C5          -1.0930    -3.3890     0.3400 c3         1 DII      -0.102600
     10 C6           0.9840    -3.1700    -1.0300 c3         1 DII      -0.102600
     11 C7          -0.6070     1.4900    -0.8570 c3         1 DII      -0.295300
     12 H1           0.7570     1.6050     1.4920 h1         1 DII       0.052700
     13 H21         -1.5980     2.2980     2.0960 hc         1 DII       0.048450
     14 H22         -0.3620     2.8700     3.2240 hc         1 DII       0.048450
     15 H23         -1.3740     1.4840     3.6510 hc         1 DII       0.048450
     16 H31          1.8740    -0.0680     2.8230 hc         1 DII       0.048450
     17 H32          1.4300     1.2520     3.9130 hc         1 DII       0.048450
     18 H33          0.4720    -0.2350     3.8890 hc         1 DII       0.048450
     19 H4           0.5690    -2.1030     0.7880 h1         1 DII       0.052700
     20 H51         -1.8370    -2.8400     0.9060 hc         1 DII       0.048450
     21 H52         -0.6810    -4.1790     0.9560 hc         1 DII       0.048450
     22 H53         -1.5560    -3.8210    -0.5390 hc         1 DII       0.048450
     23 H61          1.8060    -2.5140    -1.2900 hc         1 DII       0.048450
     24 H62          0.4540    -3.4590    -1.9290 hc         1 DII       0.048450
     25 H63          1.3700    -4.0540    -0.5370 hc         1 DII       0.048450
     26 H71         -1.6070     1.7230    -0.5130 hc         1 DII       0.081367
     27 H72         -0.6250     1.3100    -1.9250 hc         1 DII       0.081367
     28 H73          0.0520     2.3230    -0.6430 hc         1 DII       0.081367
@<TRIPOS>BOND
     1     1     2 2
     2     1     3 1
     3     1     7 1
     4     1    11 1
     5     3     4 1
     6     4     5 1
     7     4     6 1
     8     4    12 1
     9     5    13 1
    10     5    14 1
    11     5    15 1
    12     6    16 1
    13     6    17 1
    14     6    18 1
    15     7     8 1
    16     8     9 1
    17     8    10 1
    18     8    19 1
    19     9    20 1
    20     9    21 1
    21     9    22 1
    22    10    23 1
    23    10    24 1
    24    10    25 1
    25    11    26 1
    26    11    27 1
    27    11    28 1
@<TRIPOS>SUBSTRUCTURE
     1 DII         1 TEMP              0 ****  ****    0 ROOT
