@<TRIPOS>MOLECULE
DII
   28    27     1     0     0
SMALL
bcc


@<TRIPOS>ATOM
      1 P1         -0.0610    0.3510   -0.2510 p5        1 DII      1.549300
      2 O1          1.3710    0.6300   -0.2070 o         1 DII     -0.852300
      3 O2         -0.7520    0.5610    1.1890 os        1 DII     -0.599200
      4 C1          0.0580    0.9010    2.3010 c3        1 DII      0.183100
      5 C2         -0.4550    2.2070    2.8880 c3        1 DII     -0.109350
      6 C3         -0.0260   -0.2140    3.3320 c3        1 DII     -0.109350
      7 O3         -0.3770   -1.2000   -0.5490 os        1 DII     -0.599200
      8 C4          0.5000   -2.1770   -0.0150 c3        1 DII      0.183100
      9 C5         -0.2920   -3.0990    0.8990 c3        1 DII     -0.109350
     10 C6          1.1180   -2.9630   -1.1610 c3        1 DII     -0.109350
     11 C7         -1.0100    1.1560   -1.3080 c3        1 DII     -0.431300
     12 H1          1.1260    1.0270    1.9510 h1        1 DII      0.063200
     13 H21        -0.3710    3.0330    2.1430 hc        1 DII      0.044367
     14 H22        -1.5260    2.1030    3.1810 hc        1 DII      0.044367
     15 H23         0.1480    2.4710    3.7890 hc        1 DII      0.044367
     16 H31        -1.0930   -0.4510    3.5570 hc        1 DII      0.044367
     17 H32         0.4700   -1.1390    2.9500 hc        1 DII      0.044367
     18 H33         0.4850    0.1070    4.2700 hc        1 DII      0.044367
     19 H4          1.3120   -1.6490    0.5690 h1        1 DII      0.063200
     20 H51        -1.1020   -3.6050    0.3220 hc        1 DII      0.044367
     21 H52         0.3890   -3.8690    1.3310 hc        1 DII      0.044367
     22 H53        -0.7620   -2.5190    1.7300 hc        1 DII      0.044367
     23 H61         1.7330   -3.7970   -0.7480 hc        1 DII      0.044367
     24 H62         0.3170   -3.3850   -1.8120 hc        1 DII      0.044367
     25 H63         1.7710   -2.3040   -1.7800 hc        1 DII      0.044367
     26 H71        -1.5030    0.4760   -2.0480 hc        1 DII      0.115033
     27 H72        -0.4360    1.9080   -1.9050 hc        1 DII      0.115033
     28 H73        -1.8410    1.7140   -0.8090 hc        1 DII      0.115033
@<TRIPOS>BOND
     1    1    2 2   
     2    1    3 1   
     3    1    7 1   
     4    1   11 1   
     5    3    4 1   
     6    4    5 1   
     7    4    6 1   
     8    4   12 1   
     9    5   13 1   
    10    5   14 1   
    11    5   15 1   
    12    6   16 1   
    13    6   17 1   
    14    6   18 1   
    15    7    8 1   
    16    8    9 1   
    17    8   10 1   
    18    8   19 1   
    19    9   20 1   
    20    9   21 1   
    21    9   22 1   
    22   10   23 1   
    23   10   24 1   
    24   10   25 1   
    25   11   26 1   
    26   11   27 1   
    27   11   28 1   
@<TRIPOS>SUBSTRUCTURE
     1 DII         1 TEMP              0 ****  ****    0 ROOT
