@<TRIPOS>MOLECULE
molecule
   45    45     1     0     0
SMALL
bcc


@<TRIPOS>ATOM
      1 C1           0.0000     0.0000     0.0000 c3         1 DIK      -0.111400
      2 C2           1.5060     0.0000     0.0000 c2         1 DIK       0.167600
      3 C3           2.1740     0.0000     1.1560 ce         1 DIK      -0.571200
      4 C4           1.4520     0.1640     2.4160 c          1 DIK       0.536300
      5 O1           0.2630     0.4050     2.4080 o          1 DIK      -0.597100
      6 C5           2.1850     0.0350     3.7270 c3         1 DIK      -0.159400
      7 C6           1.2060     0.2500     4.8820 c3         1 DIK      -0.024100
      8 C7           1.9390     0.1210     6.1930 ca         1 DIK      -0.115300
      9 C8           2.0420    -1.1140     6.8070 ca         1 DIK      -0.111500
     10 C9           2.7130    -1.2360     8.0080 ca         1 DIK      -0.143500
     11 C10          2.5120     1.2350     6.7760 ca         1 DIK      -0.111500
     12 C11          3.1850     1.1200     7.9770 ca         1 DIK      -0.143500
     13 C12          3.2850    -0.1170     8.5990 ca         1 DIK       0.072600
     14 N1           3.9650    -0.2370     9.8150 ns         1 DIK      -0.499100
     15 C13          4.7450    -1.3120    10.0480 c          1 DIK       0.651100
     16 O2           4.9490    -2.1170     9.1640 o          1 DIK      -0.579100
     17 C14          5.3630    -1.5140    11.4080 c3         1 DIK      -0.161400
     18 C15          6.1940    -2.7990    11.4040 c3         1 DIK      -0.050400
     19 C16          6.8220    -3.0040    12.7850 c3         1 DIK      -0.187400
     20 C17          7.6390    -4.2700    12.7820 c          1 DIK       0.892600
     21 O3           7.7130    -4.9380    11.7790 o          1 DIK      -0.852300
     22 O4           8.2860    -4.6530    13.8930 o          1 DIK      -0.852300
     23 H1          -0.3610    -0.1260    -1.0140 hc         1 DIK       0.067367
     24 H1A         -0.3610    -0.8150     0.6160 hc         1 DIK       0.067367
     25 H1B         -0.3610     0.9410     0.3980 hc         1 DIK       0.067367
     26 C18          2.2610     0.0010    -1.3050 c3         1 DIK      -0.111400
     27 H3           1.7110    -0.8460     1.6480 ha         1 DIK       0.258000
     28 H5           2.6200    -0.9540     3.8020 hc         1 DIK       0.079700
     29 H5A          2.9700     0.7800     3.7760 hc         1 DIK       0.079700
     30 H6           0.4210    -0.4950     4.8330 hc         1 DIK       0.052700
     31 H6A          0.7710     1.2390     4.8070 hc         1 DIK       0.052700
     32 H8           1.5960    -1.9870     6.3450 ha         1 DIK       0.126000
     33 H9           2.7910    -2.2030     8.4890 ha         1 DIK       0.144000
     34 H10          2.4340     2.2000     6.2900 ha         1 DIK       0.126000
     35 H11          3.6320     1.9950     8.4340 ha         1 DIK       0.144000
     36 HN1          3.8600     0.4670    10.5190 hn         1 DIK       0.318500
     37 H14          6.0020    -0.6710    11.6440 hc         1 DIK       0.050200
     38 H14A         4.5800    -1.5920    12.1520 hc         1 DIK       0.050200
     39 H15          5.5540    -3.6420    11.1690 hc         1 DIK       0.063200
     40 H15A         6.9760    -2.7210    10.6590 hc         1 DIK       0.063200
     41 H16          7.4610    -2.1610    13.0190 hc         1 DIK       0.024700
     42 H16A         6.0390    -3.0810    13.5300 hc         1 DIK       0.024700
     43 H21          2.0300    -0.9030    -1.8560 hc         1 DIK       0.067367
     44 H22          3.3250     0.0410    -1.1070 hc         1 DIK       0.067367
     45 H23          1.9690     0.8650    -1.8900 hc         1 DIK       0.067367
@<TRIPOS>BOND
     1     1     2 1
     2     1    23 1
     3     1    24 1
     4     1    25 1
     5     2     3 2
     6     2    26 1
     7     3     4 1
     8     3    27 1
     9     4     5 2
    10     4     6 1
    11     6    28 1
    12     6    29 1
    13     7     6 1
    14     7     8 1
    15     7    30 1
    16     7    31 1
    17     8    11 ar
    18     9     8 ar
    19     9    10 ar
    20     9    32 1
    21    10    13 ar
    22    10    33 1
    23    11    12 ar
    24    11    34 1
    25    12    35 1
    26    13    12 ar
    27    13    14 1
    28    14    36 1
    29    15    14 1
    30    15    17 1
    31    16    15 2
    32    17    18 1
    33    17    37 1
    34    17    38 1
    35    18    19 1
    36    18    39 1
    37    18    40 1
    38    19    20 1
    39    19    41 1
    40    19    42 1
    41    20    21 1
    42    20    22 1
    43    26    43 1
    44    26    44 1
    45    26    45 1
@<TRIPOS>SUBSTRUCTURE
     1 DIK         1 TEMP              0 ****  ****    0 ROOT
