@<TRIPOS>MOLECULE
DIK
   45    45     1     0     0
SMALL
bcc


@<TRIPOS>ATOM
      1 C1           0.0000     0.0000     0.0000 c3         1 DIK       0.040600
      2 C2           1.5060     0.0000     0.0000 c2         1 DIK      -0.037400
      3 C3           2.1740     0.0000     1.1560 ce         1 DIK      -0.286200
      4 C4           1.4520     0.1640     2.4160 c          1 DIK       0.618300
      5 O1           0.2630     0.4050     2.4080 o          1 DIK      -0.585100
      6 C5           2.1850     0.0350     3.7270 c3         1 DIK      -0.116400
      7 C6           1.2060     0.2500     4.8820 c3         1 DIK       0.044900
      8 C7           1.9390     0.1210     6.1930 ca         1 DIK      -0.123300
      9 C8           2.0420    -1.1140     6.8070 ca         1 DIK      -0.083500
     10 C9           2.7130    -1.2360     8.0080 ca         1 DIK      -0.116500
     11 C10          2.5120     1.2350     6.7760 ca         1 DIK      -0.083500
     12 C11          3.1850     1.1200     7.9770 ca         1 DIK      -0.116500
     13 C12          3.2850    -0.1170     8.5990 ca         1 DIK      -0.066400
     14 N1           3.9650    -0.2370     9.8150 ns         1 DIK      -0.072100
     15 C13          4.7450    -1.3120    10.0480 c          1 DIK       0.559100
     16 O2           4.9490    -2.1170     9.1640 o          1 DIK      -0.614100
     17 C14          5.3630    -1.5140    11.4080 c3         1 DIK      -0.104400
     18 C15          6.1940    -2.7990    11.4040 c3         1 DIK      -0.004400
     19 C16          6.8220    -3.0040    12.7850 c3         1 DIK      -0.137400
     20 C17          7.6390    -4.2700    12.7820 c          1 DIK       0.980600
     21 O3           7.7130    -4.9380    11.7790 o          1 DIK      -0.901800
     22 O4           8.2860    -4.6530    13.8930 o          1 DIK      -0.901800
     23 H1          -0.3610    -0.1680    -1.0070 hc         1 DIK       0.016867
     24 H1A         -0.3610    -0.7880     0.6490 hc         1 DIK       0.016867
     25 H1B         -0.3610     0.9570     0.3580 hc         1 DIK       0.016867
     26 C18          2.2610     0.0010    -1.3050 c3         1 DIK       0.040600
     27 H3           3.2570    -0.0000     1.1530 ha         1 DIK       0.118000
     28 H5           2.6200    -0.9540     3.8020 hc         1 DIK       0.040200
     29 H5A          2.9700     0.7800     3.7760 hc         1 DIK       0.040200
     30 H6           0.4210    -0.4950     4.8330 hc         1 DIK       0.024200
     31 H6A          0.7710     1.2390     4.8070 hc         1 DIK       0.024200
     32 H8           1.5960    -1.9870     6.3450 ha         1 DIK       0.101000
     33 H9           2.7910    -2.2030     8.4890 ha         1 DIK       0.119500
     34 H10          2.4340     2.2000     6.2900 ha         1 DIK       0.101000
     35 H11          3.6320     1.9950     8.4340 ha         1 DIK       0.119500
     36 HN1          3.8570     0.4650    10.5200 hn         1 DIK       0.165500
     37 H14          4.5800    -1.5920    12.1520 hc         1 DIK       0.019200
     38 H14A         6.0020    -0.6710    11.6440 hc         1 DIK       0.019200
     39 H15          6.9760    -2.7210    10.6590 hc         1 DIK       0.036200
     40 H15A         5.5540    -3.6420    11.1700 hc         1 DIK       0.036200
     41 H16          7.4610    -2.1610    13.0190 hc         1 DIK       0.000700
     42 H16A         6.0390    -3.0810    13.5300 hc         1 DIK       0.000700
     43 H21          2.5650    -1.0100    -1.5470 hc         1 DIK       0.016867
     44 H22          1.6210     0.3830    -2.0920 hc         1 DIK       0.016867
     45 H23          3.1380     0.6300    -1.2150 hc         1 DIK       0.016867
@<TRIPOS>BOND
     1     1     2 1   
     2     1    23 1   
     3     1    24 1   
     4     1    25 1   
     5     2     3 2   
     6     2    26 1   
     7     3     4 1   
     8     3    27 1   
     9     4     5 2   
    10     4     6 1   
    11     6     7 1   
    12     6    28 1   
    13     6    29 1   
    14     7     8 1   
    15     7    30 1   
    16     7    31 1   
    17     8     9 ar  
    18     8    11 ar  
    19     9    10 ar  
    20     9    32 1   
    21    10    13 ar  
    22    10    33 1   
    23    11    12 ar  
    24    11    34 1   
    25    12    13 ar  
    26    12    35 1   
    27    13    14 1   
    28    14    15 1   
    29    14    36 1   
    30    15    16 2   
    31    15    17 1   
    32    17    18 1   
    33    17    37 1   
    34    17    38 1   
    35    18    19 1   
    36    18    39 1   
    37    18    40 1   
    38    19    20 1   
    39    19    41 1   
    40    19    42 1   
    41    20    21 1   
    42    20    22 1   
    43    26    43 1   
    44    26    44 1   
    45    26    45 1   
@<TRIPOS>SUBSTRUCTURE
     1 DIK         1 TEMP              0 ****  ****    0 ROOT
