@<TRIPOS>MOLECULE
molecule
   47    48     1     0     0
SMALL
bcc


@<TRIPOS>ATOM
      1 O1           0.0000     0.0000     0.0000 o          1 DIM      -0.575100
      2 C1           1.2130     0.0000     0.0000 c          1 DIM       0.664900
      3 N1           1.8870     0.0000     1.1680 ns         1 DIM      -0.505400
      4 C2           1.1850    -0.0000     2.3830 cc         1 DIM       0.459200
      5 N2           1.7300    -0.0010     3.6000 nc         1 DIM      -0.716000
      6 C3           0.7720     0.0060     4.5040 cd         1 DIM       0.386000
      7 N3          -0.4320     0.0010     3.8590 na         1 DIM      -0.127900
      8 C4          -0.1690     0.0010     2.5230 cd         1 DIM      -0.174600
      9 C5          -1.7550     0.0000     4.4860 c3         1 DIM       0.025600
     10 C6           0.9670     0.0080     5.9640 c          1 DIM       0.615600
     11 O2           0.0020     0.0140     6.7060 o          1 DIM      -0.604100
     12 N4           2.2120     0.0030     6.4790 ns         1 DIM      -0.473400
     13 C7           2.3970     0.0040     7.8680 cc         1 DIM       0.444200
     14 N5           3.5710    -0.0070     8.5010 nc         1 DIM      -0.712000
     15 C8           3.3620     0.0030     9.8020 cd         1 DIM       0.350000
     16 N6           2.0150     0.0110    10.0240 na         1 DIM      -0.122900
     17 C9           1.4080     0.0120     8.8050 cd         1 DIM      -0.192600
     18 C10          1.3470     0.0160    11.3280 c3         1 DIM       0.027600
     19 C11          4.4070     0.0000    10.8410 c          1 DIM       0.628600
     20 O3           4.0950     0.0030    12.0160 o          1 DIM      -0.589100
     21 N7           5.7070    -0.0080    10.4890 ns         1 DIM      -0.582900
     22 C12          6.7470    -0.0100    11.5220 c3         1 DIM       0.124000
     23 C13          8.1250    -0.0190    10.8600 c3         1 DIM      -0.167700
     24 C14          9.1940    -0.0230    11.9230 c2         1 DIM       0.267200
     25 N9           9.6560    -1.1690    12.3920 nv         1 DIM      -0.345100
     26 N8           9.6680     1.1220    12.3870 nz         1 DIM      -0.752600
     27 H1           1.7540     0.0150    -0.9380 h5         1 DIM       0.072200
     28 HN1          2.8870     0.0000     1.1680 hn         1 DIM       0.349500
     29 H4          -0.8910    -0.1660     1.7320 h4         1 DIM       0.248000
     30 H51         -2.5190     0.0050     3.7170 h1         1 DIM       0.080367
     31 H52         -1.8620     0.8820     5.1060 h1         1 DIM       0.080367
     32 H53         -1.8650    -0.8870     5.0970 h1         1 DIM       0.080367
     33 HN4          3.0060     0.0070     5.8690 hn         1 DIM       0.364500
     34 H9           0.3410     0.0170     8.6170 h4         1 DIM       0.244000
     35 H101         0.2740     0.0210    11.1840 h1         1 DIM       0.078367
     36 H102         1.6330    -0.8700    11.8830 h1         1 DIM       0.078367
     37 H103         1.6420     0.8990    11.8810 h1         1 DIM       0.078367
     38 HN7          5.9640    -0.0220     9.5210 hn         1 DIM       0.349500
     39 H121         6.6380    -0.8930    12.1410 h1         1 DIM       0.064200
     40 H122         6.6470     0.8760    12.1370 h1         1 DIM       0.064200
     41 H131         8.2340     0.8640    10.2420 hc         1 DIM       0.116700
     42 H132         8.2250    -0.9050    10.2450 hc         1 DIM       0.116700
     43 HN91        10.3650    -1.1710    13.0980 hn         1 DIM       0.352200
     44 HN92         9.2970    -2.0350    12.0420 hn         1 DIM       0.352200
     45 HN81        10.6540     1.1670    12.2200 hn         1 DIM       0.491800
     46 HN82         9.4940     1.1810    13.3710 hn         1 DIM       0.491800
     47 H83          9.2160     1.8840    11.9220 hn         1 DIM       0.491800
@<TRIPOS>BOND
     1     1     2 2
     2     2     3 1
     3     2    27 1
     4     3     4 1
     5     3    28 1
     6     4     5 1
     7     4     8 2
     8     5     6 2
     9     6     7 1
    10     6    10 1
    11     7     8 1
    12     7     9 1
    13     8    29 1
    14     9    30 1
    15     9    31 1
    16     9    32 1
    17    10    11 2
    18    10    12 1
    19    12    13 1
    20    12    33 1
    21    13    14 1
    22    13    17 2
    23    14    15 2
    24    15    16 1
    25    15    19 1
    26    16    17 1
    27    16    18 1
    28    17    34 1
    29    18    35 1
    30    18    36 1
    31    18    37 1
    32    19    20 2
    33    19    21 1
    34    21    22 1
    35    21    38 1
    36    22    23 1
    37    22    39 1
    38    22    40 1
    39    23    24 1
    40    23    41 1
    41    23    42 1
    42    24    25 2
    43    24    26 1
    44    25    43 1
    45    25    44 1
    46    26    45 1
    47    26    46 1
    48    47    26 1
@<TRIPOS>SUBSTRUCTURE
     1 DIM         1 TEMP              0 ****  ****    0 ROOT
