@<TRIPOS>MOLECULE
DIM
   46    47     1     0     0
SMALL
bcc


@<TRIPOS>ATOM
      1 O1         -0.4200    0.2420   -0.1750 o         1 DIM     -0.588100
      2 C1          0.8140    0.1410   -0.1020 c         1 DIM      0.668900
      3 N1          1.5120    0.0540    1.0870 n         1 DIM     -0.541400
      4 C2          0.9080    0.0700    2.3470 cc        1 DIM      0.404200
      5 N2          1.6150   -0.0140    3.5550 nc        1 DIM     -0.674000
      6 C3          0.6650    0.0340    4.5350 cd        1 DIM      0.321000
      7 N3         -0.6280    0.1460    3.9940 na        1 DIM     -0.131900
      8 C4         -0.4930    0.1700    2.6170 cd        1 DIM     -0.223600
      9 C5         -1.8550    0.2210    4.7240 c3        1 DIM      0.015600
     10 C6          0.9150   -0.0210    6.0000 c         1 DIM      0.622600
     11 O2         -0.0230    0.0380    6.8210 o         1 DIM     -0.615100
     12 N4          2.2390   -0.1400    6.3960 n         1 DIM     -0.510400
     13 C7          2.6260   -0.2070    7.7340 cc        1 DIM      0.427200
     14 N5          3.9580   -0.3120    8.1490 nc        1 DIM     -0.663000
     15 C8          3.9110   -0.3460    9.5180 cd        1 DIM      0.296000
     16 N6          2.5880   -0.2660    9.9900 na        1 DIM     -0.123900
     17 C9          1.7660   -0.1800    8.8840 cd        1 DIM     -0.212600
     18 C10         2.1680   -0.2820   11.3570 c3        1 DIM      0.015600
     19 C11         5.0840   -0.4510   10.4080 c         1 DIM      0.633600
     20 O3          4.9810   -0.3570   11.6570 o         1 DIM     -0.683100
     21 N7          6.3210   -0.6420    9.8220 n         1 DIM     -0.560900
     22 C12         7.4940   -0.9300   10.5870 c3        1 DIM      0.098000
     23 C13         8.3610    0.3020   10.9190 c3        1 DIM     -0.195700
     24 C14         8.4270    0.5920   12.4150 c2        1 DIM      0.446800
     25 N9          7.2810    0.7370   13.1030 nh        1 DIM     -0.469100
     26 N8          9.6440    0.7290   12.9940 nh        1 DIM     -0.453200
     27 H1          1.4790    0.1090   -0.9970 h5        1 DIM      0.046200
     28 HN1         2.5030   -0.0270    1.0660 hn        1 DIM      0.334500
     29 H4         -1.3320    0.2500    1.9200 h4        1 DIM      0.224000
     30 H51        -1.9710   -0.6980    5.3620 h1        1 DIM      0.072033
     31 H52        -1.8370    1.1180    5.4020 h1        1 DIM      0.072033
     32 H53        -2.7140    0.3000    4.0080 h1        1 DIM      0.072033
     33 HN4         2.9610   -0.1860    5.7080 hn        1 DIM      0.361500
     34 H9          0.6750   -0.1090    8.9340 h4        1 DIM      0.230000
     35 H101        2.6030   -1.1790   11.8760 h1        1 DIM      0.072367
     36 H102        2.5400    0.6420   11.8770 h1        1 DIM      0.072367
     37 H103        1.0470   -0.3200   11.4050 h1        1 DIM      0.072367
     38 HN7         6.3890   -0.7070    8.8300 hn        1 DIM      0.357500
     39 H121        7.2000   -1.4650   11.5360 h1        1 DIM      0.081200
     40 H122        8.1380   -1.6370    9.9840 h1        1 DIM      0.081200
     41 H131        7.9700    1.2320   10.4170 hc        1 DIM      0.109700
     42 H132        9.3940    0.1240   10.5140 hc        1 DIM      0.109700
     43 HN91        6.3990    0.5780   12.6370 hn        1 DIM      0.331950
     44 HN92        7.2580    0.9270   14.0820 hn        1 DIM      0.331950
     45 HN81       10.4650    0.6350   12.4360 hn        1 DIM      0.331950
     46 HN82        9.7630    0.9400   13.9610 hn        1 DIM      0.331950
@<TRIPOS>BOND
     1    1    2 2   
     2    2    3 1   
     3    2   27 1   
     4    3    4 1   
     5    3   28 1   
     6    4    5 1   
     7    4    8 2   
     8    5    6 2   
     9    6    7 1   
    10    6   10 1   
    11    7    8 1   
    12    7    9 1   
    13    8   29 1   
    14    9   30 1   
    15    9   31 1   
    16    9   32 1   
    17   10   11 2   
    18   10   12 1   
    19   12   13 1   
    20   12   33 1   
    21   13   14 1   
    22   13   17 2   
    23   14   15 2   
    24   15   16 1   
    25   15   19 1   
    26   16   17 1   
    27   16   18 1   
    28   17   34 1   
    29   18   35 1   
    30   18   36 1   
    31   18   37 1   
    32   19   20 2   
    33   19   21 1   
    34   21   22 1   
    35   21   38 1   
    36   22   23 1   
    37   22   39 1   
    38   22   40 1   
    39   23   24 1   
    40   23   41 1   
    41   23   42 1   
    42   24   25 2   
    43   24   26 1   
    44   25   43 1   
    45   25   44 1   
    46   26   45 1   
    47   26   46 1   
@<TRIPOS>SUBSTRUCTURE
     1 DIM         1 TEMP              0 ****  ****    0 ROOT
