@<TRIPOS>MOLECULE
molecule
   20    21     1     0     0
SMALL
bcc


@<TRIPOS>ATOM
      1 C1           0.0000     0.0000     0.0000 ca         1 DIN      -0.013000
      2 C2           1.4050     0.0000     0.0000 ca         1 DIN      -0.138000
      3 C3           2.0810     0.0000     1.1870 ca         1 DIN       0.103100
      4 C4           1.3920     0.0100     2.4040 ca         1 DIN      -0.142000
      5 C5           0.0330     0.0140     2.4370 ca         1 DIN      -0.098000
      6 C6          -2.1040     0.0130     1.2340 ca         1 DIN       0.117100
      7 C7          -2.0880    -0.0010    -1.1730 ca         1 DIN      -0.112000
      8 C8          -0.7260    -0.0060    -1.2030 ca         1 DIN      -0.125000
      9 O1          -2.7850     0.0040     2.4080 oh         1 DIN      -0.517100
     10 O2           3.4610     0.2310     1.2410 oh         1 DIN      -0.526100
     11 C9          -2.7800     0.0090     0.0350 ca         1 DIN      -0.151000
     12 C10         -0.6950     0.0090     1.2350 ca         1 DIN      -0.067000
     13 H2           1.9470    -0.0040    -0.9380 ha         1 DIN       0.143000
     14 H4           1.9420     0.0100     3.3380 ha         1 DIN       0.141000
     15 H5          -0.4860     0.0210     3.3880 ha         1 DIN       0.145000
     16 H7          -2.6500    -0.0050    -2.1000 ha         1 DIN       0.133000
     17 H8          -0.2030    -0.0100    -2.1510 ha         1 DIN       0.135000
     18 HO1         -2.9170     0.8910     2.7020 ho         1 DIN       0.420000
     19 HO2          3.9200    -0.5910     1.1800 ho         1 DIN       0.414000
     20 H9          -3.8450     0.2050     0.0130 ha         1 DIN       0.139000
@<TRIPOS>BOND
     1     1     2 ar
     2     1     8 ar
     3     1    12 ar
     4     2     3 ar
     5     2    13 1
     6     3     4 ar
     7     3    10 1
     8     4     5 ar
     9     4    14 1
    10     5    12 ar
    11     5    15 1
    12     6     9 1
    13     6    11 ar
    14     6    12 ar
    15     7     8 ar
    16     7    11 ar
    17     7    16 1
    18     8    17 1
    19     9    18 1
    20    10    19 1
    21    11    20 1
@<TRIPOS>SUBSTRUCTURE
     1 DIN         1 TEMP              0 ****  ****    0 ROOT
