@<TRIPOS>MOLECULE
DIN
   20    21     1     0     0
SMALL
bcc


@<TRIPOS>ATOM
      1 C1          0.0170    0.0470   -0.0300 ca        1 DIN      0.025000
      2 C2          1.4320   -0.0290   -0.0760 ca        1 DIN     -0.172000
      3 C3          2.1510   -0.0990    1.1050 ca        1 DIN      0.134100
      4 C4          1.5000   -0.0970    2.3690 ca        1 DIN     -0.210000
      5 C5          0.1310   -0.0230    2.4210 ca        1 DIN     -0.053000
      6 C6         -2.0660    0.1270    1.2480 ca        1 DIN      0.153100
      7 C7         -2.1240    0.1930   -1.1650 ca        1 DIN     -0.079000
      8 C8         -0.7550    0.1200   -1.2230 ca        1 DIN     -0.162000
      9 O1         -2.6510    0.1270    2.4930 oh        1 DIN     -0.500100
     10 O2          3.5220   -0.1720    1.0000 oh        1 DIN     -0.497100
     11 C9         -2.7980    0.1970    0.0770 ca        1 DIN     -0.239000
     12 C10        -0.6370    0.0500    1.2300 ca        1 DIN     -0.087000
     13 H2          1.9500   -0.0320   -1.0450 ha        1 DIN      0.153000
     14 H4          2.1010   -0.1530    3.2870 ha        1 DIN      0.135000
     15 H5         -0.4010   -0.0190    3.3870 ha        1 DIN      0.152000
     16 H7         -2.7210    0.2500   -2.0880 ha        1 DIN      0.133000
     17 H8         -0.2300    0.1160   -2.1890 ha        1 DIN      0.137000
     18 HO1        -3.6110    0.1820    2.3710 ho        1 DIN      0.422000
     19 HO2         3.8870   -0.2150    1.8960 ho        1 DIN      0.420000
     20 H9         -3.8940    0.2570    0.1000 ha        1 DIN      0.134000
@<TRIPOS>BOND
     1    1    2 ar  
     2    1    8 ar  
     3    1   12 ar  
     4    2    3 ar  
     5    2   13 1   
     6    3    4 ar  
     7    3   10 1   
     8    4    5 ar  
     9    4   14 1   
    10    5   12 ar  
    11    5   15 1   
    12    6    9 1   
    13    6   11 ar  
    14    6   12 ar  
    15    7    8 ar  
    16    7   11 ar  
    17    7   16 1   
    18    8   17 1   
    19    9   18 1   
    20   10   19 1   
    21   11   20 1   
@<TRIPOS>SUBSTRUCTURE
     1 DIN         1 TEMP              0 ****  ****    0 ROOT
