@<TRIPOS>MOLECULE
molecule
   14    14     1     0     0
SMALL
bcc


@<TRIPOS>ATOM
      1 C1           0.0000     0.0000     0.0000 c3         1 DIO       0.088400
      2 C2           0.0000    -1.1950     1.9580 c3         1 DIO       0.088400
      3 C1'          1.5280     0.0000     0.0000 c3         1 DIO       0.088400
      4 C2'          1.5280    -1.1950     1.9580 c3         1 DIO       0.088400
      5 O1          -0.4810    -1.1950     0.6140 os         1 DIO      -0.400600
      6 O1'          2.0090     0.0000     1.3440 os         1 DIO      -0.400600
      7 H11         -0.3590     0.0480    -1.0210 h1         1 DIO       0.056200
      8 H12         -0.3590     0.8580     0.5550 h1         1 DIO       0.056200
      9 H21         -0.3590    -2.0810     2.4680 h1         1 DIO       0.056200
     10 H22         -0.3590    -0.3090     2.4680 h1         1 DIO       0.056200
     11 H1'1         1.8870    -0.8860    -0.5100 h1         1 DIO       0.056200
     12 H1'2         1.8870     0.8860    -0.5100 h1         1 DIO       0.056200
     13 H2'1         1.8870    -2.0540     1.4030 h1         1 DIO       0.056200
     14 H2'2         1.8870    -1.2440     2.9790 h1         1 DIO       0.056200
@<TRIPOS>BOND
     1     1     3 1
     2     1     5 1
     3     1     7 1
     4     1     8 1
     5     2     4 1
     6     2     5 1
     7     2     9 1
     8     2    10 1
     9     3     6 1
    10     3    11 1
    11     3    12 1
    12     4     6 1
    13     4    13 1
    14     4    14 1
@<TRIPOS>SUBSTRUCTURE
     1 DIO         1 TEMP              0 ****  ****    0 ROOT
