@<TRIPOS>MOLECULE
DIO
   14    14     1     0     0
SMALL
bcc


@<TRIPOS>ATOM
      1 C1          0.0030    0.0320   -0.0240 c3        1 DIO      0.091400
      2 C2          0.0020   -1.2050    1.9950 c3        1 DIO      0.091400
      3 C1'         1.5260    0.0090   -0.0370 c3        1 DIO      0.091400
      4 C2'         1.5250   -1.2270    1.9820 c3        1 DIO      0.091400
      5 O1         -0.5180   -1.0960    0.6730 os        1 DIO     -0.412600
      6 O1'         2.0460   -0.0990    1.2840 os        1 DIO     -0.412600
      7 H11        -0.3720    0.9730    0.4570 h1        1 DIO      0.057200
      8 H12        -0.4120   -0.0660   -1.0600 h1        1 DIO      0.057200
      9 H21        -0.3730   -0.3480    2.6150 h1        1 DIO      0.057200
     10 H22        -0.4130   -2.1730    2.3780 h1        1 DIO      0.057200
     11 H1'1        1.9410    0.9770   -0.4210 h1        1 DIO      0.057200
     12 H1'2        1.9010   -0.8470   -0.6570 h1        1 DIO      0.057200
     13 H2'1        1.9010   -2.1680    1.5010 h1        1 DIO      0.057200
     14 H2'2        1.9400   -1.1290    3.0180 h1        1 DIO      0.057200
@<TRIPOS>BOND
     1    1    3 1   
     2    1    5 1   
     3    1    7 1   
     4    1    8 1   
     5    2    4 1   
     6    2    5 1   
     7    2    9 1   
     8    2   10 1   
     9    3    6 1   
    10    3   11 1   
    11    3   12 1   
    12    4    6 1   
    13    4   13 1   
    14    4   14 1   
@<TRIPOS>SUBSTRUCTURE
     1 DIO         1 TEMP              0 ****  ****    0 ROOT
