@<TRIPOS>MOLECULE
molecule
   34    33     1     0     0
SMALL
bcc


@<TRIPOS>ATOM
      1 N            0.0000     0.0000     0.0000 n7         1 DIP      -0.800200
      2 C1           1.4680     0.0000     0.0000 c3         1 DIP       0.145300
      3 C2           1.9780     0.0000     1.4420 c3         1 DIP      -0.083400
      4 C3           3.5080    -0.0000     1.4430 c3         1 DIP      -0.082400
      5 C4           4.0190    -0.0000     2.8850 c3         1 DIP      -0.083400
      6 C5           5.5480     0.0010     2.8860 c3         1 DIP      -0.092100
      7 C1'         -0.4220    -0.0000    -1.4060 c3         1 DIP       0.145300
      8 C2'         -1.9500    -0.0010    -1.4800 c3         1 DIP      -0.083400
      9 C3'         -2.3910    -0.0010    -2.9450 c3         1 DIP      -0.082400
     10 C4'         -3.9180    -0.0020    -3.0190 c3         1 DIP      -0.083400
     11 C5'         -4.3590    -0.0010    -4.4840 c3         1 DIP      -0.092100
     12 HN          -0.3340     0.8300     0.4480 hn         1 DIP       0.348800
     13 H11          1.8290    -0.8840    -0.5110 h1         1 DIP       0.032200
     14 H12          1.8290     0.8840    -0.5110 h1         1 DIP       0.032200
     15 H21          1.6170    -0.8840     1.9530 hc         1 DIP       0.047700
     16 H22          1.6170     0.8840     1.9530 hc         1 DIP       0.047700
     17 H31          3.8690    -0.8850     0.9320 hc         1 DIP       0.040200
     18 H32          3.8700     0.8840     0.9320 hc         1 DIP       0.040200
     19 H41          3.6570     0.8840     3.3960 hc         1 DIP       0.040700
     20 H42          3.6580    -0.8850     3.3950 hc         1 DIP       0.040700
     21 H51          5.9100    -0.8830     2.3750 hc         1 DIP       0.032700
     22 H52          5.9090     0.8860     2.3760 hc         1 DIP       0.032700
     23 H53          5.9090     0.0010     3.9070 hc         1 DIP       0.032700
     24 H1'1        -0.0370    -0.8850    -1.8990 h1         1 DIP       0.032200
     25 H1'2        -0.0370     0.8840    -1.8990 h1         1 DIP       0.032200
     26 H2'1        -2.3350    -0.8850    -0.9870 hc         1 DIP       0.047700
     27 H2'2        -2.3350     0.8840    -0.9880 hc         1 DIP       0.047700
     28 H3'1        -2.0050    -0.8860    -3.4380 hc         1 DIP       0.040200
     29 H3'2        -2.0060     0.8830    -3.4380 hc         1 DIP       0.040200
     30 H4'1        -4.3040     0.8830    -2.5260 hc         1 DIP       0.040700
     31 H4'2        -4.3030    -0.8860    -2.5270 hc         1 DIP       0.040700
     32 H5'1        -5.4410    -0.0020    -4.5360 hc         1 DIP       0.032700
     33 H5'2        -3.9750     0.8840    -4.9770 hc         1 DIP       0.032700
     34 H5'3        -3.9740    -0.8850    -4.9780 hc         1 DIP       0.032700
@<TRIPOS>BOND
     1     1     2 1
     2     1     7 1
     3     1    12 1
     4     2     3 1
     5     2    13 1
     6     2    14 1
     7     3     4 1
     8     3    15 1
     9     3    16 1
    10     4     5 1
    11     4    17 1
    12     4    18 1
    13     5     6 1
    14     5    19 1
    15     5    20 1
    16     6    21 1
    17     6    22 1
    18     6    23 1
    19     7     8 1
    20     7    24 1
    21     7    25 1
    22     8     9 1
    23     8    26 1
    24     8    27 1
    25     9    10 1
    26     9    28 1
    27     9    29 1
    28    10    11 1
    29    10    30 1
    30    10    31 1
    31    11    32 1
    32    11    33 1
    33    11    34 1
@<TRIPOS>SUBSTRUCTURE
     1 DIP         1 TEMP              0 ****  ****    0 ROOT
