@<TRIPOS>MOLECULE
molecule
   32    33     1     0     0
SMALL
bcc


@<TRIPOS>ATOM
      1 N1           0.0000     0.0000     0.0000 n3         1 DIQ      -0.645600
      2 CM          -0.4230     0.0100    -1.4070 c3         1 DIQ       0.131100
      3 C2           1.4660     0.0000     0.0000 c3         1 DIQ       0.041500
      4 C            1.9540    -1.2410    -0.7010 c          1 DIQ       0.893600
      5 O            1.2860    -2.2480    -0.6810 o          1 DIQ      -0.841300
      6 C3           1.9640     0.0000     1.4290 c3         1 DIQ      -0.056400
      7 C3A          1.4950     1.2690     2.1440 c3         1 DIQ      -0.071700
      8 C4           1.9370     1.2390     3.6070 c3         1 DIQ      -0.070400
      9 C5           1.3160     0.0420     4.3270 c3         1 DIQ      -0.079400
     10 C6          -0.2090     0.1450     4.2550 c3         1 DIQ      -0.080400
     11 C7          -0.6480     0.1330     2.7900 c3         1 DIQ      -0.071400
     12 C7A         -0.0310     1.3260     2.0580 c3         1 DIQ      -0.055700
     13 C8          -0.4420     1.2700     0.5830 c3         1 DIQ       0.135800
     14 OXT          3.1300    -1.2290    -1.3470 o          1 DIQ      -0.841300
     15 HM1         -0.3340    -0.9890    -1.8170 h1         1 DIQ       0.030367
     16 HM2         -1.4540     0.3360    -1.4710 h1         1 DIQ       0.030367
     17 HM3          0.2070     0.6890    -1.9690 h1         1 DIQ       0.030367
     18 H2           1.8300     0.8820    -0.5120 h1         1 DIQ       0.022700
     19 H31          3.0470    -0.0330     1.4300 hc         1 DIQ       0.054200
     20 H32          1.5720    -0.8680     1.9450 hc         1 DIQ       0.054200
     21 H3A          1.9180     2.1380     1.6550 hc         1 DIQ       0.039700
     22 H41          3.0170     1.1610     3.6510 hc         1 DIQ       0.027200
     23 H42          1.6190     2.1520     4.0940 hc         1 DIQ       0.027200
     24 H51          1.6390    -0.8750     3.8480 hc         1 DIQ       0.038200
     25 H52          1.6290     0.0440     5.3650 hc         1 DIQ       0.038200
     26 H61         -0.6510    -0.6990     4.7710 hc         1 DIQ       0.023700
     27 H62         -0.5300     1.0690     4.7200 hc         1 DIQ       0.023700
     28 H71         -1.7280     0.2000     2.7390 hc         1 DIQ       0.058200
     29 H72         -0.3160    -0.7860     2.3230 hc         1 DIQ       0.058200
     30 H7A         -0.3870     2.2490     2.5000 hc         1 DIQ       0.022700
     31 H81         -1.5200     1.3440     0.5070 h1         1 DIQ       0.016700
     32 H82          0.0210     2.0910     0.0490 h1         1 DIQ       0.016700
@<TRIPOS>BOND
     1     1     2 1
     2     1     3 1
     3     1    13 1
     4     2    15 1
     5     2    16 1
     6     2    17 1
     7     3     4 1
     8     3     6 1
     9     3    18 1
    10     4     5 1
    11     4    14 1
    12     6     7 1
    13     6    19 1
    14     6    20 1
    15     7     8 1
    16     7    12 1
    17     7    21 1
    18     8     9 1
    19     8    22 1
    20     8    23 1
    21     9    10 1
    22     9    24 1
    23     9    25 1
    24    10    11 1
    25    10    26 1
    26    10    27 1
    27    11    12 1
    28    11    28 1
    29    11    29 1
    30    12    13 1
    31    12    30 1
    32    13    31 1
    33    13    32 1
@<TRIPOS>SUBSTRUCTURE
     1 DIQ         1 TEMP              0 ****  ****    0 ROOT
