@<TRIPOS>MOLECULE
DIT
  104   112     1     0     0
SMALL
bcc


@<TRIPOS>ATOM
      1 C1           0.0000     0.0000     0.0000 c2         1 DIT      -0.223000
      2 N2           1.3150     0.0000     0.0000 na         1 DIT       0.608000
      3 C3           2.0300     0.0000     1.1150 c2         1 DIT      -0.301000
      4 C4           1.4440     0.0000     2.3460 c2         1 DIT       0.009000
      5 C5          -0.6420     0.0020     3.6520 ca         1 DIT      -0.091000
      6 C6          -1.9980     0.0030     3.6950 ca         1 DIT      -0.005000
      7 N7          -4.1420     0.0050     2.3290 na         1 DIT       0.377000
      8 C8          -5.6310     0.0040     0.2730 ca         1 DIT      -0.034000
      9 C9          -5.6250     0.0040    -1.1050 ca         1 DIT      -0.169000
     10 C10         -4.4240     0.0030    -1.8070 ca         1 DIT       0.100000
     11 O10         -4.4330     0.0020    -3.1670 os         1 DIT      -0.167000
     12 C11         -3.2230    -0.0040    -1.1250 ca         1 DIT      -0.121000
     13 C12          0.0410     0.0020     2.4250 ca         1 DIT      -0.025000
     14 C13         -2.7740     0.0040     2.5280 ca         1 DIT      -0.135000
     15 C14         -4.4320     0.0040     0.9770 ca         1 DIT      -0.187000
     16 C15         -3.2180     0.0030     0.2700 cp         1 DIT      -0.036000
     17 C16         -2.1500     0.0020     1.2790 cq         1 DIT      -0.109000
     18 C17         -0.6960     0.0010     1.2130 ca         1 DIT       0.042000
     19 C18         -5.8040     0.0030    -3.5710 c3         1 DIT       0.027000
     20 C19          2.0180    -0.0010    -1.2860 c3         1 DIT      -0.201000
     21 C20          2.2610    -1.4440    -1.7330 c3         1 DIT      -0.106000
     22 N21          2.9660    -1.4450    -3.0210 n3         1 DIT      -0.033000
     23 C22          3.3810    -2.8290    -3.2740 c3         1 DIT      -0.097500
     24 C23          4.1200    -2.9110    -4.6110 c3         1 DIT      -0.114500
     25 C24          3.1750    -2.4800    -5.7360 c3         1 DIT      -0.090000
     26 C25          2.6360    -1.0800    -5.4230 c3         1 DIT      -0.114500
     27 C26          1.9750    -1.0940    -4.0440 c3         1 DIT      -0.097500
     28 C1X          5.1620    -4.2100   -13.6540 c2         1 DIT      -0.223000
     29 N2X          4.6410    -5.1800   -12.9370 na         1 DIT       0.608000
     30 C3X          4.6990    -6.4520   -13.3040 c2         1 DIT      -0.302000
     31 C4X          5.3160    -6.8400   -14.4570 c2         1 DIT       0.010000
     32 C5X          6.5540    -6.1720   -16.4750 ca         1 DIT      -0.091000
     33 C6X          7.1080    -5.2000   -17.2420 ca         1 DIT      -0.004000
     34 N7X          7.5440    -2.7070   -17.4830 na         1 DIT       0.376000
     35 C8X          7.5060    -0.2360   -16.8990 ca         1 DIT      -0.033000
     36 C9X          7.0780     0.6790   -15.9620 ca         1 DIT      -0.169000
     37 CAX          6.3810     0.2610   -14.8330 ca         1 DIT       0.100000
     38 OAX          5.9650     1.1760   -13.9170 os         1 DIT      -0.167000
     39 CBX          6.1100    -1.0810   -14.6410 ca         1 DIT      -0.121000
     40 CCX          5.9020    -5.8570   -15.2730 ca         1 DIT      -0.026000
     41 CDX          7.0580    -3.8490   -16.8730 ca         1 DIT      -0.135000
     42 CEX          7.2430    -1.5910   -16.7230 ca         1 DIT      -0.187000
     43 CFX          6.5380    -2.0150   -15.5840 cp         1 DIT      -0.036000
     44 CGX          6.4230    -3.4750   -15.6870 cp         1 DIT      -0.108000
     45 CHX          5.8210    -4.5040   -14.8530 ca         1 DIT       0.042000
     46 CIX          6.3890     2.4560   -14.3890 c3         1 DIT       0.027000
     47 CJX          3.9620    -4.8420   -11.6830 c3         1 DIT      -0.204000
     48 NLX          4.2900    -4.5330    -9.2770 n3         1 DIT      -0.013000
     49 CMX          5.2390    -4.8140    -8.1940 c3         1 DIT      -0.103000
     50 CNX          4.6010    -4.4770    -6.8450 c2         1 DIT      -0.135000
     51 COX          3.9380    -2.4510    -7.0620 c2         1 DIT      -0.071000
     52 CPX          3.0150    -2.3580    -8.2820 c3         1 DIT      -0.118000
     53 CQX          4.0680    -3.0830    -9.2960 c3         1 DIT      -0.108000
     54 H1          -0.5430     0.0000    -0.9370 h4         1 DIT       0.176000
     55 H3           3.1120     0.0000     1.0470 h4         1 DIT       0.170000
     56 H4           2.0480     0.0000     3.2450 ha         1 DIT       0.145000
     57 H5          -0.0780     0.0020     4.5770 ha         1 DIT       0.132000
     58 H6          -2.4940     0.0030     4.6580 ha         1 DIT       0.121000
     59 HN7         -4.8260     0.0060     3.0600 hn         1 DIT       0.082000
     60 H8          -6.5730     0.0050     0.8090 ha         1 DIT       0.116000
     61 H9          -6.5630     0.0040    -1.6460 ha         1 DIT       0.149000
     62 H11         -2.2870    -0.0050    -1.6720 ha         1 DIT       0.103000
     63 H181        -6.2950    -0.8810    -3.1840 h1         1 DIT       0.049333
     64 H182        -6.2940     0.8880    -3.1840 h1         1 DIT       0.049333
     65 H183        -5.8610     0.0030    -4.6530 h1         1 DIT       0.049333
     66 H191         1.4150     0.5100    -2.0270 h1         1 DIT       0.114500
     67 H192         2.9670     0.5090    -1.1790 h1         1 DIT       0.114500
     68 H201         1.3110    -1.9540    -1.8410 h1         1 DIT       0.065000
     69 H202         2.8630    -1.9550    -0.9920 h1         1 DIT       0.065000
     70 H221         2.5060    -3.4660    -3.3080 h1         1 DIT       0.053500
     71 H222         4.0410    -3.1560    -2.4790 h1         1 DIT       0.053500
     72 H231         4.4430    -3.9310    -4.7820 hc         1 DIT       0.074000
     73 H232         4.9800    -2.2530    -4.5890 hc         1 DIT       0.074000
     74 H24          2.3490    -3.1780    -5.8020 hc         1 DIT       0.078000
     75 H251         3.4540    -0.3700    -5.4250 hc         1 DIT       0.074000
     76 H252         1.9040    -0.8000    -6.1720 hc         1 DIT       0.074000
     77 H261         1.1760    -1.8260    -4.0360 h1         1 DIT       0.053500
     78 H262         1.5710    -0.1110    -3.8300 h1         1 DIT       0.053500
     79 H3X          4.2500    -7.2040   -12.6690 h4         1 DIT       0.169000
     80 H4X          5.3520    -7.8850   -14.7380 ha         1 DIT       0.145000
     81 H5X          6.6140    -7.2060   -16.7950 ha         1 DIT       0.132000
     82 H6X          7.6040    -5.4760   -18.1650 ha         1 DIT       0.121000
     83 HN7X         8.0430    -2.6900   -18.3500 hn         1 DIT       0.083000
     84 H8X          8.0490     0.1000   -17.7750 ha         1 DIT       0.116000
     85 H9X          7.2870     1.7320   -16.1050 ha         1 DIT       0.149000
     86 H11X         5.5660    -1.4050   -13.7620 ha         1 DIT       0.103000
     87 HX81         5.9420     2.6500   -15.3560 h1         1 DIT       0.049333
     88 HX82         6.0770     3.2200   -13.6870 h1         1 DIT       0.049333
     89 HX83         7.4680     2.4680   -14.4800 h1         1 DIT       0.049333
     90 HX91         3.1750    -5.5610   -11.4930 h1         1 DIT       0.114500
     91 HX92         3.5330    -3.8500   -11.7610 h1         1 DIT       0.114500
     92 HX21         6.1280    -4.2110    -8.3310 h1         1 DIT       0.057500
     93 HX22         5.5030    -5.8640    -8.2130 h1         1 DIT       0.057500
     94 HX31         3.6950    -5.0580    -6.7190 ha         1 DIT       0.066500
     95 HX32         5.2980    -4.7060    -6.0490 ha         1 DIT       0.066500
     96 H24X         4.7950    -1.8040    -7.2070 ha         1 DIT       0.088000
     97 HX51         2.4880    -1.4110    -8.2650 hc         1 DIT       0.086000
     98 HX52         2.3040    -3.1750    -8.2600 hc         1 DIT       0.086000
     99 HX61         3.4480    -2.8260   -10.1470 h1         1 DIT       0.046500
    100 HX62         5.0210    -2.5750    -9.3720 h1         1 DIT       0.046500
    101 CKX          4.9700    -4.8730   -10.5330 c3         1 DIT      -0.104000
    102 H1X          5.0890    -3.1850   -13.3120 h4         1 DIT       0.176000
    103 HX01         5.7580    -4.1540   -10.7230 h1         1 DIT       0.066500
    104 HX02         5.3980    -5.8650   -10.4540 h1         1 DIT       0.066500
@<TRIPOS>BOND
     1     1     2 1   
     2     1    18 1   
     3     1    54 1   
     4     2     3 1   
     5     2    20 1   
     6     3     4 1   
     7     3    55 1   
     8     4    13 1   
     9     4    56 1   
    10     5     6 1   
    11     5    13 1   
    12     5    57 1   
    13     6    14 1   
    14     6    58 1   
    15     7    14 1   
    16     7    15 1   
    17     7    59 1   
    18     8     9 1   
    19     8    15 1   
    20     8    60 1   
    21     9    10 1   
    22     9    61 1   
    23    10    11 1   
    24    10    12 1   
    25    11    19 1   
    26    12    16 1   
    27    12    62 1   
    28    13    18 1   
    29    14    17 1   
    30    15    16 1   
    31    16    17 1   
    32    17    18 1   
    33    19    63 1   
    34    19    64 1   
    35    19    65 1   
    36    20    21 1   
    37    20    66 1   
    38    20    67 1   
    39    21    22 1   
    40    21    68 1   
    41    21    69 1   
    42    22    23 1   
    43    22    27 1   
    44    23    24 1   
    45    23    70 1   
    46    23    71 1   
    47    24    25 1   
    48    24    72 1   
    49    24    73 1   
    50    25    26 1   
    51    25    51 1   
    52    25    74 1   
    53    26    27 1   
    54    26    75 1   
    55    26    76 1   
    56    27    77 1   
    57    27    78 1   
    58    28    29 1   
    59    28    45 1   
    60    28   102 1   
    61    29    30 1   
    62    29    47 1   
    63    30    31 1   
    64    30    79 1   
    65    31    40 1   
    66    31    80 1   
    67    32    33 1   
    68    32    40 1   
    69    32    81 1   
    70    33    41 1   
    71    33    82 1   
    72    34    41 1   
    73    34    42 1   
    74    34    83 1   
    75    35    36 1   
    76    35    42 1   
    77    35    84 1   
    78    36    37 1   
    79    36    85 1   
    80    37    38 1   
    81    37    39 1   
    82    38    46 1   
    83    39    43 1   
    84    39    86 1   
    85    40    45 1   
    86    41    44 1   
    87    42    43 1   
    88    43    44 1   
    89    44    45 1   
    90    46    87 1   
    91    46    88 1   
    92    46    89 1   
    93    47    90 1   
    94    47    91 1   
    95    47   101 1   
    96    48    49 1   
    97    48    53 1   
    98    48   101 1   
    99    49    50 1   
   100    49    92 1   
   101    49    93 1   
   102    50    94 1   
   103    50    95 1   
   104    51    52 1   
   105    51    96 1   
   106    52    53 1   
   107    52    97 1   
   108    52    98 1   
   109    53    99 1   
   110    53   100 1   
   111   101   103 1   
   112   101   104 1   
@<TRIPOS>SUBSTRUCTURE
     1 DIT         1 TEMP              0 ****  ****    0 ROOT
