@<TRIPOS>MOLECULE
DIU
   15    15     1     0     0
SMALL
bcc


@<TRIPOS>ATOM
      1 C           0.0450    0.1480   -0.0400 c         1 DIU      0.920200
      2 O1          1.3140    0.2020   -0.0650 o         1 DIU     -0.822300
      3 O2         -0.6300    0.1460    1.0220 o         1 DIU     -0.822300
      4 O3          1.3090    0.1300   -2.7460 oh        1 DIU     -0.533100
      5 C1         -0.7020    0.0810   -1.3630 ca        1 DIU     -0.228600
      6 C2         -0.0430    0.0760   -2.6150 ca        1 DIU      0.239100
      7 C3         -0.7970    0.0120   -3.8080 ca        1 DIU     -0.054100
      8 C4         -2.1890   -0.0450   -3.7370 ca        1 DIU     -0.048000
      9 C5         -2.8380   -0.0400   -2.5080 ca        1 DIU     -0.045100
     10 C6         -2.0910    0.0230   -1.3280 ca        1 DIU     -0.020000
     11 I1          0.0340   -0.0010   -5.6560 i         1 DIU     -0.182900
     12 I2         -4.8570   -0.1250   -2.4390 i         1 DIU     -0.199900
     13 H3          1.7260    0.1720   -1.8530 ho        1 DIU      0.495000
     14 H4         -2.7760   -0.0950   -4.6690 ha        1 DIU      0.131000
     15 H6         -2.5770    0.0280   -0.3350 ha        1 DIU      0.172000
@<TRIPOS>BOND
     1    1    2 1   
     2    1    3 1   
     3    1    5 1   
     4    4    6 1   
     5    4   13 1   
     6    5    6 ar  
     7    5   10 ar  
     8    6    7 ar  
     9    7    8 ar  
    10    7   11 1   
    11    8    9 ar  
    12    8   14 1   
    13    9   10 ar  
    14    9   12 1   
    15   10   15 1   
@<TRIPOS>SUBSTRUCTURE
     1 DIU         1 TEMP              0 ****  ****    0 ROOT
