@<TRIPOS>MOLECULE
molecule
   15    15     1     0     0
SMALL
bcc


@<TRIPOS>ATOM
      1 C            0.0000     0.0000     0.0000 c          1 DIU       0.881200
      2 O1           1.2160     0.0000     0.0000 o          1 DIU      -0.817800
      3 O2          -0.6730     0.0000     1.1660 o          1 DIU      -0.817800
      4 O3           1.3170     0.0050    -2.5010 oh         1 DIU      -0.461100
      5 C1          -0.7360    -0.0020    -1.2770 ca         1 DIU      -0.116600
      6 C2          -0.0390     0.0040    -2.4930 ca         1 DIU       0.178100
      7 C3          -0.7430    -0.0020    -3.6890 ca         1 DIU      -0.023100
      8 C4          -2.1240    -0.0020    -3.6800 ca         1 DIU      -0.077000
      9 C5          -2.8170    -0.0030    -2.4800 ca         1 DIU       0.016900
     10 C6          -2.1340    -0.0020    -1.2820 ca         1 DIU      -0.034000
     11 I1           0.2910    -0.0020    -5.5120 i          1 DIU      -0.220900
     12 I2          -4.9120    -0.0050    -2.4860 i          1 DIU      -0.222900
     13 H3           1.6290     0.7460    -2.9930 ho         1 DIU       0.409000
     14 H4          -2.6690    -0.0020    -4.6170 ha         1 DIU       0.130000
     15 H6          -2.6790    -0.0550    -0.3480 ha         1 DIU       0.176000
@<TRIPOS>BOND
     1     1     2 1
     2     1     3 1
     3     1     5 1
     4     4     6 1
     5     4    13 1
     6     5     6 ar
     7     5    10 ar
     8     6     7 ar
     9     7     8 ar
    10     7    11 1
    11     8     9 ar
    12     8    14 1
    13     9    10 ar
    14     9    12 1
    15    10    15 1
@<TRIPOS>SUBSTRUCTURE
     1 DIU         1 TEMP              0 ****  ****    0 ROOT
