@<TRIPOS>MOLECULE
molecule
   60    63     1     0     0
SMALL
bcc


@<TRIPOS>ATOM
      1 C            0.0000     0.0000     0.0000 ca         1 DIW      -0.149000
      2 C2           2.0680     0.0010    -1.2150 ca         1 DIW      -0.135300
      3 C3           1.3950     0.0000     0.0000 ca         1 DIW       0.009800
      4 N7           2.3010     0.0000     1.0590 nh         1 DIW      -0.198200
      5 C8           3.5990    -0.0000     0.6160 ce         1 DIW       0.359600
      6 C9           3.5450     0.0010    -0.8960 c3         1 DIW      -0.082000
      7 C10          4.7100     0.0000     1.3810 ce         1 DIW      -0.392600
      8 C11          5.9870     0.0020     0.7730 cf         1 DIW       0.031000
      9 C12          7.1030     0.0020     1.5420 cf         1 DIW      -0.254000
     10 C13          8.4250     0.0020     0.9130 cc         1 DIW       0.138000
     11 C14          9.6520     0.0020     1.7140 ca         1 DIW      -0.083000
     12 C15         10.8970     0.0030     1.0400 ca         1 DIW       0.045000
     13 N16         10.9300     0.0040    -0.2970 na         1 DIW      -0.188200
     14 C17          9.8410     0.0040    -1.0290 cd         1 DIW       0.053000
     15 C18          8.5700    -0.0020    -0.4780 cc         1 DIW      -0.241000
     16 C19         12.0810     0.0030     1.7960 ca         1 DIW      -0.143000
     17 C20         12.0130     0.0030     3.1560 ca         1 DIW      -0.058000
     18 C21         10.7860     0.0020     3.8140 ca         1 DIW      -0.119000
     19 C22          9.6170     0.0020     3.1110 ca         1 DIW      -0.080000
     20 C23         12.2310     0.0040    -0.9700 c3         1 DIW       0.164800
     21 C24         12.7420    -1.4320    -1.0930 c3         1 DIW      -0.075400
     22 C25         14.1020    -1.4300    -1.7960 c3         1 DIW      -0.254600
     23 S26         14.7080    -3.1340    -1.9420 s6         1 DIW       1.233800
     24 C27          4.2140    -1.2560    -1.4560 c3         1 DIW      -0.077600
     25 C28          4.2130     1.2590    -1.4560 c3         1 DIW      -0.077600
     26 C29          1.9130     0.0000     2.4720 c3         1 DIW       0.039600
     27 C30         -0.6930    -0.0060    -1.1920 ca         1 DIW      -0.090000
     28 O30         16.0500    -3.0000    -2.6490 o          1 DIW      -0.684533
     29 C31         -0.0110    -0.0120    -2.3960 ca         1 DIW      -0.144000
     30 O31         15.0370    -3.6580    -0.6630 o          1 DIW      -0.684533
     31 C32          1.3720    -0.0110    -2.4040 ca         1 DIW      -0.075000
     32 O32         13.9060    -3.8730    -2.8530 o          1 DIW      -0.684533
     33 H           -0.5400     0.0050     0.9390 ha         1 DIW       0.135000
     34 H10          4.6240     0.0010     2.4610 ha         1 DIW       0.148000
     35 H11          6.0730     0.0020    -0.3060 ha         1 DIW       0.131000
     36 H12          7.0170     0.0010     2.6220 ha         1 DIW       0.150000
     37 H17          9.9390     0.0010    -2.1080 h4         1 DIW       0.190000
     38 H18          7.6970    -0.0020    -1.1190 ha         1 DIW       0.170000
     39 H19         13.0440     0.0040     1.3000 ha         1 DIW       0.174000
     40 H20         12.9280     0.0020     3.7350 ha         1 DIW       0.161000
     41 H21         10.7600     0.0010     4.8970 ha         1 DIW       0.152000
     42 H22          8.6670     0.0010     3.6330 ha         1 DIW       0.154000
     43 H23         12.9360     0.5900    -0.3930 h1         1 DIW       0.085700
     44 H23A        12.1260     0.4360    -1.9580 h1         1 DIW       0.085700
     45 H24         12.8470    -1.8640    -0.1060 hc         1 DIW       0.062200
     46 H24A        12.0380    -2.0180    -1.6710 hc         1 DIW       0.062200
     47 H25         14.8060    -0.8450    -1.2180 h1         1 DIW       0.079700
     48 H25A        13.9970    -0.9980    -2.7840 h1         1 DIW       0.079700
     49 H27          3.5260    -1.7660    -2.1200 hc         1 DIW       0.048867
     50 H27A         5.1050    -0.9770    -2.0050 hc         1 DIW       0.048867
     51 H27B         4.4830    -1.9160    -0.6400 hc         1 DIW       0.048867
     52 H28          5.1160     0.9820    -1.9870 hc         1 DIW       0.048867
     53 H28A         4.4640     1.9280    -0.6410 hc         1 DIW       0.048867
     54 H28B         3.5330     1.7570    -2.1360 hc         1 DIW       0.048867
     55 H29          0.8330    -0.0120     2.5510 h1         1 DIW       0.054700
     56 H29A         2.3000     0.8910     2.9530 h1         1 DIW       0.054700
     57 H29B         2.3210    -0.8780     2.9590 h1         1 DIW       0.054700
     58 H30         -1.7760    -0.0060    -1.1860 ha         1 DIW       0.142000
     59 H31         -0.5600    -0.0160    -3.3300 ha         1 DIW       0.143000
     60 H32          1.9080    -0.0160    -3.3460 ha         1 DIW       0.139000
@<TRIPOS>BOND
     1    27     1 ar
     2     1     3 ar
     3     1    33 1
     4     3     2 ar
     5    31     2 ar
     6     2     6 1
     7     3     4 1
     8    26     4 1
     9     4     5 2
    10     5     6 1
    11     5     7 1
    12     6    25 1
    13     6    24 1
    14     7     8 2
    15     7    34 1
    16     8     9 1
    17     8    35 1
    18     9    10 2
    19     9    36 1
    20    10    11 1
    21    10    15 1
    22    19    11 ar
    23    11    12 ar
    24    12    16 ar
    25    12    13 1
    26    14    13 1
    27    13    20 1
    28    15    14 2
    29    14    37 1
    30    15    38 1
    31    17    16 ar
    32    16    39 1
    33    18    17 ar
    34    17    40 1
    35    19    18 ar
    36    18    41 1
    37    19    42 1
    38    20    21 1
    39    20    43 1
    40    20    44 1
    41    21    22 1
    42    21    45 1
    43    21    46 1
    44    22    23 1
    45    22    47 1
    46    22    48 1
    47    30    23 1
    48    23    32 1
    49    23    28 1
    50    24    49 1
    51    24    50 1
    52    24    51 1
    53    25    52 1
    54    25    53 1
    55    25    54 1
    56    26    55 1
    57    26    56 1
    58    26    57 1
    59    27    29 ar
    60    27    58 1
    61    29    31 ar
    62    29    59 1
    63    31    60 1
@<TRIPOS>SUBSTRUCTURE
     1 DIW         1 TEMP              0 ****  ****    0 ROOT
