@<TRIPOS>MOLECULE
DIW
   60    65     1     0     0
SMALL
bcc


@<TRIPOS>ATOM
      1 C            0.0000     0.0000     0.0000 ca         1 DIW      -0.092000
      2 C2           2.0680     0.0010    -1.2150 ca         1 DIW      -0.113000
      3 C3           1.3950     0.0000     0.0000 ca         1 DIW      -0.140000
      4 N7           2.3010     0.0000     1.0590 nh         1 DIW       0.297000
      5 C8           3.5990    -0.0000     0.6160 c2         1 DIW      -0.052000
      6 C9           3.5450     0.0010    -0.8960 c3         1 DIW       0.020000
      7 C10          4.7100     0.0000     1.3810 c3         1 DIW      -0.263000
      8 C11          5.9870     0.0020     0.7730 c2         1 DIW      -0.093000
      9 C12          7.1030     0.0020     1.5420 c2         1 DIW      -0.253000
     10 C13          8.4250     0.0020     0.9130 c3         1 DIW       0.244000
     11 C14          9.6520     0.0020     1.7140 ca         1 DIW      -0.109000
     12 C15         10.8970     0.0030     1.0400 ca         1 DIW      -0.133000
     13 N16         10.9300     0.0040    -0.2970 nh         1 DIW       0.475000
     14 C17          9.8410     0.0040    -1.0290 c2         1 DIW      -0.107000
     15 C18          8.5700    -0.0020    -0.4780 c2         1 DIW      -0.307000
     16 C19         12.0810     0.0030     1.7960 ca         1 DIW      -0.122000
     17 C20         12.0130     0.0030     3.1560 ca         1 DIW      -0.024000
     18 C21         10.7860     0.0020     3.8140 ca         1 DIW      -0.096000
     19 C22          9.6170     0.0020     3.1110 ca         1 DIW      -0.039000
     20 C23         12.2310     0.0040    -0.9700 c3         1 DIW      -0.189000
     21 C24         12.7420    -1.4320    -1.0930 c3         1 DIW      -0.086000
     22 C25         14.1020    -1.4300    -1.7960 c3         1 DIW      -0.601000
     23 S26         14.7080    -3.1340    -1.9420 s6         1 DIW       2.378000
     24 C27          4.2140    -1.2560    -1.4560 c3         1 DIW      -0.100500
     25 C28          4.2130     1.2590    -1.4560 c3         1 DIW      -0.100500
     26 C29          1.9130     0.0000     2.4720 c3         1 DIW      -0.118000
     27 C30         -0.6930    -0.0060    -1.1920 ca         1 DIW      -0.068000
     28 O30         16.0500    -3.0000    -2.6490 o          1 DIW      -0.963667
     29 C31         -0.0110    -0.0120    -2.3960 ca         1 DIW      -0.091000
     30 O31         15.0370    -3.6580    -0.6630 o          1 DIW      -0.963667
     31 C32          1.3720    -0.0110    -2.4040 ca         1 DIW      -0.042000
     32 O32         13.9060    -3.8730    -2.8530 o          1 DIW      -0.963667
     33 H           -0.5400     0.0050     0.9390 ha         1 DIW       0.111000
     34 H10          4.6240     0.0010     2.4610 hc         1 DIW       0.147000
     35 H11          5.5130     0.8760     1.2020 DU         1 DIW       0.227000
     36 H12          7.5760     0.8770     1.1140 DU         1 DIW       0.088000
     37 H17          9.9390     0.0010    -2.1080 h4         1 DIW       0.151000
     38 H18          7.6970    -0.0020    -1.1190 ha         1 DIW       0.154000
     39 H19         13.0440     0.0040     1.3000 ha         1 DIW       0.149000
     40 H20         12.9280     0.0020     3.7350 ha         1 DIW       0.120000
     41 H21         10.7600     0.0010     4.8970 ha         1 DIW       0.116000
     42 H22          8.6670     0.0010     3.6330 ha         1 DIW       0.130000
     43 H23         12.9360     0.5910    -0.3930 h1         1 DIW       0.095000
     44 H23A        12.1260     0.4360    -1.9580 h1         1 DIW       0.095000
     45 H24         12.8470    -1.8640    -0.1060 hc         1 DIW       0.072500
     46 H24A        12.0380    -2.0180    -1.6710 hc         1 DIW       0.072500
     47 H25         13.9970    -0.9980    -2.7840 h1         1 DIW       0.092000
     48 H25A        14.8060    -0.8450    -1.2180 h1         1 DIW       0.092000
     49 H27          3.8320    -2.1290    -0.9410 hc         1 DIW       0.057833
     50 H27A         3.9980    -1.3390    -2.5150 hc         1 DIW       0.057833
     51 H27B         5.2850    -1.1910    -1.3100 hc         1 DIW       0.057833
     52 H28          5.2900     1.1480    -1.4070 hc         1 DIW       0.057833
     53 H28A         3.9120     1.4000    -2.4870 hc         1 DIW       0.057833
     54 H28B         3.9120     2.1190    -0.8710 hc         1 DIW       0.057833
     55 H29          0.8340    -0.0440     2.5510 h1         1 DIW       0.070333
     56 H29A         2.2730     0.9060     2.9450 h1         1 DIW       0.070333
     57 H29B         2.3470    -0.8610     2.9660 h1         1 DIW       0.070333
     58 H30         -1.7760    -0.0060    -1.1860 ha         1 DIW       0.114000
     59 H31         -0.5600    -0.0160    -3.3300 ha         1 DIW       0.116000
     60 H32          1.9080    -0.0160    -3.3460 ha         1 DIW       0.114000
@<TRIPOS>BOND
     1     1     3 1   
     2     1    27 1   
     3     1    33 1   
     4     2     3 1   
     5     2     6 1   
     6     2    31 1   
     7     3     4 1   
     8     4     5 1   
     9     4    26 1   
    10     5     6 1   
    11     5     7 1   
    12     6    24 1   
    13     6    25 1   
    14     7     8 1   
    15     7    34 1   
    16     7    35 1   
    17     8     9 1   
    18     8    35 1   
    19     9    10 1   
    20     9    36 1   
    21    10    11 1   
    22    10    15 1   
    23    10    36 1   
    24    11    12 1   
    25    11    19 1   
    26    12    13 1   
    27    12    16 1   
    28    13    14 1   
    29    13    20 1   
    30    14    15 1   
    31    14    37 1   
    32    15    38 1   
    33    16    17 1   
    34    16    39 1   
    35    17    18 1   
    36    17    40 1   
    37    18    19 1   
    38    18    41 1   
    39    19    42 1   
    40    20    21 1   
    41    20    43 1   
    42    20    44 1   
    43    21    22 1   
    44    21    45 1   
    45    21    46 1   
    46    22    23 1   
    47    22    47 1   
    48    22    48 1   
    49    23    28 1   
    50    23    30 1   
    51    23    32 1   
    52    24    49 1   
    53    24    50 1   
    54    24    51 1   
    55    25    52 1   
    56    25    53 1   
    57    25    54 1   
    58    26    55 1   
    59    26    56 1   
    60    26    57 1   
    61    27    29 1   
    62    27    58 1   
    63    29    31 1   
    64    29    59 1   
    65    31    60 1   
@<TRIPOS>SUBSTRUCTURE
     1 DIW         1 TEMP              0 ****  ****    0 ROOT
