@<TRIPOS>MOLECULE
molecule
   29    29     1     0     0
SMALL
bcc


@<TRIPOS>ATOM
      1 N            0.0000     0.0000     0.0000 n7         1 DIX      -0.800200
      2 CM           1.4680     0.0000     0.0000 c3         1 DIX       0.136100
      3 C3          -0.4230     0.0000     1.4060 c3         1 DIX       0.143800
      4 C2          -1.9500     0.0010     1.4810 c3         1 DIX      -0.085400
      5 C1          -2.3910     0.0010     2.9440 c3         1 DIX      -0.075400
      6 C1'         -3.9180     0.0020     3.0180 c3         1 DIX      -0.073700
      7 C2'         -4.3770     0.0030     4.4870 c3         1 DIX      -0.080400
      8 C5'         -4.4780     1.2910     2.3820 c3         1 DIX      -0.080400
      9 C4'         -5.6930     1.6560     3.2700 c3         1 DIX      -0.083900
     10 C3'         -5.1990     1.2920     4.6910 c3         1 DIX      -0.083900
     11 HN          -0.3340    -0.8300    -0.4490 hn         1 DIX       0.347800
     12 HM1          1.8290     0.8870     0.5060 h1         1 DIX       0.030367
     13 HM2          1.8290    -0.8820     0.5150 h1         1 DIX       0.030367
     14 HM3          1.8290    -0.0050    -1.0210 h1         1 DIX       0.030367
     15 H31         -0.0380    -0.8850     1.8990 h1         1 DIX       0.032200
     16 H32         -0.0370     0.8840     1.8990 h1         1 DIX       0.032200
     17 H21         -2.3360    -0.8840     0.9880 hc         1 DIX       0.048700
     18 H22         -2.3350     0.8850     0.9880 hc         1 DIX       0.048700
     19 H11         -2.0060    -0.8840     3.4370 hc         1 DIX       0.041200
     20 H12         -2.0050     0.8850     3.4370 hc         1 DIX       0.041200
     21 H1'         -4.3200    -0.8650     2.5070 hc         1 DIX       0.050700
     22 H2'1        -3.5150     0.0060     5.1430 hc         1 DIX       0.043950
     23 H2'2        -4.9950    -0.8650     4.6810 hc         1 DIX       0.043950
     24 H5'1        -4.7980     1.1020     1.3640 hc         1 DIX       0.043950
     25 H5'2        -3.7360     2.0800     2.4130 hc         1 DIX       0.043950
     26 H4'1        -5.9110     2.7150     3.2020 hc         1 DIX       0.042950
     27 H4'2        -6.5560     1.0600     3.0010 hc         1 DIX       0.042950
     28 H3'1        -4.5710     2.0810     5.0870 hc         1 DIX       0.042950
     29 H3'2        -6.0400     1.1030     5.3470 hc         1 DIX       0.042950
@<TRIPOS>BOND
     1     1     2 1
     2     1     3 1
     3     1    11 1
     4     2    12 1
     5     2    13 1
     6     2    14 1
     7     3     4 1
     8     3    15 1
     9     3    16 1
    10     4     5 1
    11     4    17 1
    12     4    18 1
    13     5     6 1
    14     5    19 1
    15     5    20 1
    16     6     7 1
    17     6     8 1
    18     6    21 1
    19     7    10 1
    20     7    22 1
    21     7    23 1
    22     8     9 1
    23     8    24 1
    24     8    25 1
    25     9    10 1
    26     9    26 1
    27     9    27 1
    28    10    28 1
    29    10    29 1
@<TRIPOS>SUBSTRUCTURE
     1 DIX         1 TEMP              0 ****  ****    0 ROOT
