@<TRIPOS>MOLECULE
molecule
   29    29     1     0     0
SMALL
bcc


@<TRIPOS>ATOM
      1 N1           0.0000     0.0000     0.0000 n7         1 DIY      -0.801200
      2 C2           1.4660     0.0000     0.0000 c3         1 DIY       0.147800
      3 C6          -0.4380     1.2740     0.5790 c3         1 DIY       0.149800
      4 C3           1.9840     0.0000     1.4390 c3         1 DIY      -0.076400
      5 C4           1.5020     1.2680     2.1480 c3         1 DIY      -0.077400
      6 C5          -0.0250     1.3450     2.0490 c3         1 DIY      -0.067700
      7 C1'         -0.5120     2.6610     2.6550 c3         1 DIY      -0.079400
      8 C2'         -2.0350     2.7370     2.5520 c3         1 DIY      -0.084400
      9 C3'         -2.5230     4.0540     3.1580 c3         1 DIY      -0.084400
     10 C4'         -4.0470     4.1310     3.0570 c3         1 DIY      -0.092100
     11 HN1         -0.3340    -0.0710    -0.9410 hn         1 DIY       0.349800
     12 H21          1.8250    -0.8860    -0.5100 h1         1 DIY       0.029700
     13 H22          1.8250     0.8860    -0.5100 h1         1 DIY       0.029700
     14 H61          0.0220     2.0910     0.0370 h1         1 DIY       0.032200
     15 H62         -1.5170     1.3490     0.5050 h1         1 DIY       0.032200
     16 H31          1.6040    -0.8710     1.9590 hc         1 DIY       0.048200
     17 H32          3.0670    -0.0200     1.4330 hc         1 DIY       0.048200
     18 H41          1.9390     2.1370     1.6720 hc         1 DIY       0.040200
     19 H42          1.7950     1.2330     3.1910 hc         1 DIY       0.040200
     20 H5          -0.4620     0.5110     2.5850 hc         1 DIY       0.065700
     21 H1'1        -0.0720     3.4920     2.1160 hc         1 DIY       0.042200
     22 H1'2        -0.2170     2.7100     3.6960 hc         1 DIY       0.042200
     23 H2'1        -2.3300     2.6880     1.5110 hc         1 DIY       0.043200
     24 H2'2        -2.4750     1.9070     3.0920 hc         1 DIY       0.043200
     25 H3'1        -2.0840     4.8840     2.6190 hc         1 DIY       0.039200
     26 H3'2        -2.2280     4.1040     4.1990 hc         1 DIY       0.039200
     27 H4'1        -4.4870     3.3020     3.5990 hc         1 DIY       0.032700
     28 H4'2        -4.3910     5.0650     3.4840 hc         1 DIY       0.032700
     29 H4'3        -4.3430     4.0790     2.0160 hc         1 DIY       0.032700
@<TRIPOS>BOND
     1     1     2 1
     2     1     3 1
     3     1    11 1
     4     2     4 1
     5     2    12 1
     6     2    13 1
     7     3     6 1
     8     3    14 1
     9     3    15 1
    10     4     5 1
    11     4    16 1
    12     4    17 1
    13     5     6 1
    14     5    18 1
    15     5    19 1
    16     6     7 1
    17     6    20 1
    18     7     8 1
    19     7    21 1
    20     7    22 1
    21     8     9 1
    22     8    23 1
    23     8    24 1
    24     9    10 1
    25     9    25 1
    26     9    26 1
    27    10    27 1
    28    10    28 1
    29    10    29 1
@<TRIPOS>SUBSTRUCTURE
     1 DIY         1 TEMP              0 ****  ****    0 ROOT
