@<TRIPOS>MOLECULE
molecule
   46    49     1     0     0
SMALL
bcc


@<TRIPOS>ATOM
      1 Cl1          0.0000     0.0000     0.0000 cl         1 DIZ      -0.149400
      2 C1           1.7360     0.0000     0.0000 ca         1 DIZ       0.016400
      3 C2           2.4280     0.0000     1.1980 ca         1 DIZ      -0.129500
      4 C3           3.8100     0.0000     1.1980 ca         1 DIZ      -0.107000
      5 C4           4.5010     0.0010     0.0010 ca         1 DIZ      -0.041300
      6 C5           3.8100     0.0060    -1.1970 ca         1 DIZ      -0.107000
      7 C6           2.4280     0.0010    -1.1970 ca         1 DIZ      -0.129500
      8 C7           6.0080     0.0020     0.0010 c3         1 DIZ       0.029000
      9 C8           6.5110    -1.2170    -0.7290 c          1 DIZ       0.876600
     10 O1           7.2050    -1.0900    -1.7100 o          1 DIZ      -0.813800
     11 O2           6.1870    -2.4430    -0.2910 o          1 DIZ      -0.813800
     12 N1           6.4960     1.2090    -0.6700 n          1 DIZ      -0.426800
     13 C9           7.0780     2.1650     0.0520 c          1 DIZ       0.706100
     14 O3           7.1920     1.9810     1.2490 o          1 DIZ      -0.661500
     15 C10          7.5960     3.4230    -0.4990 ca         1 DIZ      -0.152600
     16 C11          7.3850     4.5940     0.2500 ca         1 DIZ      -0.026000
     17 C12          7.8340     5.8090    -0.2120 ca         1 DIZ       0.018900
     18 I1           7.5110     7.5430     0.9170 i          1 DIZ      -0.189900
     19 C13          8.4990     5.8870    -1.4270 ca         1 DIZ      -0.068000
     20 C14          8.7150     4.7480    -2.1710 ca         1 DIZ      -0.183000
     21 C15          8.2690     3.5050    -1.7170 ca         1 DIZ       0.119600
     22 N2           8.5290     2.4070    -2.5190 ns         1 DIZ      -0.476100
     23 C16          7.6860     1.4080    -2.7600 c          1 DIZ       0.701500
     24 O4           8.0210     0.5260    -3.5220 o          1 DIZ      -0.567500
     25 C17          6.3280     1.3400    -2.1180 c3         1 DIZ       0.105000
     26 C18          5.5570     2.5980    -2.4250 ca         1 DIZ      -0.111300
     27 C19          5.7240     3.2310    -3.6430 ca         1 DIZ      -0.107500
     28 C20          5.0180     4.3840    -3.9260 ca         1 DIZ      -0.124000
     29 C21          4.1430     4.9070    -2.9880 ca         1 DIZ       0.025400
     30 Cl2          3.2560     6.3550    -3.3430 cl         1 DIZ      -0.131400
     31 C22          3.9770     4.2730    -1.7700 ca         1 DIZ      -0.124000
     32 C23          4.6800     3.1160    -1.4900 ca         1 DIZ      -0.107500
     33 H2           1.8860    -0.0010     2.1360 ha         1 DIZ       0.130500
     34 H3           4.3520    -0.0020     2.1360 ha         1 DIZ       0.145500
     35 H5           4.3520     0.0070    -2.1350 ha         1 DIZ       0.145500
     36 H6           1.8860     0.0050    -2.1350 ha         1 DIZ       0.130500
     37 H7           6.3690    -0.0140     1.0230 h1         1 DIZ       0.107700
     38 H11          6.8660     4.5390     1.1990 ha         1 DIZ       0.161000
     39 H13          8.8520     6.8440    -1.7890 ha         1 DIZ       0.135000
     40 H14          9.2360     4.8180    -3.1180 ha         1 DIZ       0.135000
     41 HN2          9.4290     2.3610    -2.9540 hn         1 DIZ       0.328500
     42 H17          5.7920     0.4790    -2.4980 h1         1 DIZ       0.149700
     43 H19          6.4090     2.8210    -4.3760 ha         1 DIZ       0.153000
     44 H20          5.1490     4.8800    -4.8800 ha         1 DIZ       0.139000
     45 H22          3.2910     4.6800    -1.0370 ha         1 DIZ       0.139000
     46 H23          4.5490     2.6200    -0.5360 ha         1 DIZ       0.153000
@<TRIPOS>BOND
     1     1     2 1
     2     2     3 ar
     3     2     7 ar
     4     3     4 ar
     5     3    33 1
     6     4     5 ar
     7     4    34 1
     8     5     6 ar
     9     5     8 1
    10     6     7 ar
    11     6    35 1
    12     7    36 1
    13     8     9 1
    14     8    12 1
    15     8    37 1
    16     9    10 1
    17     9    11 1
    18    12    13 1
    19    12    25 1
    20    13    14 2
    21    13    15 1
    22    15    16 ar
    23    15    21 ar
    24    16    17 ar
    25    16    38 1
    26    17    18 1
    27    17    19 ar
    28    19    20 ar
    29    19    39 1
    30    20    21 ar
    31    20    40 1
    32    21    22 1
    33    22    23 1
    34    22    41 1
    35    23    24 2
    36    23    25 1
    37    25    26 1
    38    25    42 1
    39    26    27 ar
    40    26    32 ar
    41    27    28 ar
    42    27    43 1
    43    28    29 ar
    44    28    44 1
    45    29    30 1
    46    29    31 ar
    47    31    32 ar
    48    31    45 1
    49    32    46 1
@<TRIPOS>SUBSTRUCTURE
     1 DIZ         1 TEMP              0 ****  ****    0 ROOT
