@<TRIPOS>MOLECULE
molecule
   80    83     1     0     0
SMALL
bcc


@<TRIPOS>ATOM
      1 C15          0.0000     0.0000     0.0000 c3         1 DJ1       0.157500
      2 C17          1.9820     0.0000     1.4740 c3         1 DJ1      -0.085400
      3 C20         -2.8840    -1.1320    -0.6360 c          1 DJ1       0.627100
      4 C12         -2.0930    -0.7710    -2.9590 c3         1 DJ1       0.027700
      5 N14         -0.5140    -0.8420    -1.0880 n7         1 DJ1      -0.784200
      6 C16          1.5430     0.0000     0.0000 c3         1 DJ1      -0.093900
      7 C18          0.6920     0.0010     2.3190 c3         1 DJ1      -0.085400
      8 C19         -0.3800    -0.6020     1.3770 c3         1 DJ1      -0.093900
      9 C01          3.0810    -3.5750    -7.2560 c3         1 DJ1      -0.108767
     10 C02          3.1920    -2.9010    -5.8870 c3         1 DJ1       0.177800
     11 C03          2.2850    -3.6230    -4.8880 c3         1 DJ1      -0.108767
     12 C04          4.6420    -2.9700    -5.4020 c3         1 DJ1      -0.108767
     13 C06          1.5050    -1.2770    -6.3450 c          1 DJ1       0.764100
     14 C09         -0.3730     0.2410    -6.6690 c3         1 DJ1       0.165700
     15 C10         -1.2250    -0.5200    -5.6500 c3         1 DJ1      -0.026300
     16 C13         -1.8630    -0.4200    -1.4870 c3         1 DJ1       0.108500
     17 C23         -5.1160    -1.3120     0.3250 c3         1 DJ1       0.162300
     18 C24         -6.4100    -0.5390     0.3080 ca         1 DJ1      -0.246600
     19 C25         -7.3730    -0.8040    -0.6540 ca         1 DJ1      -0.077000
     20 C26         -8.5480    -0.0680    -0.6310 ca         1 DJ1      -0.256300
     21 C27         -8.7200     0.8970     0.3420 ca         1 DJ1       0.427200
     22 C29         -6.6550     0.4390     1.2540 ca         1 DJ1       0.434200
     23 C30         -0.7210    -0.2360    -8.0810 c3         1 DJ1      -0.025200
     24 C31          0.0260     0.5970    -9.0900 cc         1 DJ1      -0.151400
     25 C32         -0.4360     1.6840    -9.7280 cd         1 DJ1      -0.105100
     26 C34          1.6580     1.3970   -10.4890 ca         1 DJ1      -0.040200
     27 C35          1.3970     0.3760    -9.5580 ca         1 DJ1      -0.094800
     28 C36          2.3790    -0.5730    -9.2710 ca         1 DJ1      -0.077000
     29 C37          3.5920    -0.5050    -9.8960 ca         1 DJ1      -0.158000
     30 C38          3.8550     0.5010   -10.8150 ca         1 DJ1      -0.107000
     31 C39          2.9010     1.4480   -11.1140 ca         1 DJ1      -0.148000
     32 N08          1.0450    -0.0110    -6.4050 ns         1 DJ1      -0.555900
     33 N28         -7.7810     1.1230     1.2420 nb         1 DJ1      -0.688000
     34 N33          0.5250     2.1750   -10.5690 na         1 DJ1      -0.183400
     35 O05          2.7840    -1.5120    -5.9960 os         1 DJ1      -0.431900
     36 O07          0.7660    -2.2050    -6.6060 o          1 DJ1      -0.636000
     37 O21         -2.5900    -2.1640    -0.0720 o          1 DJ1      -0.608100
     38 S11         -0.9030     0.1310    -3.9880 ss         1 DJ1      -0.323200
     39 H1          -0.3770     1.0120    -0.0860 h1         1 DJ1       0.057700
     40 H2           2.5630    -0.8900     1.6870 hc         1 DJ1       0.042200
     41 H3           2.5640     0.8890     1.6870 hc         1 DJ1       0.042200
     42 H4          -3.1010    -0.4920    -3.2430 h1         1 DJ1       0.062200
     43 H5          -0.5380    -1.7970    -0.7890 hn         1 DJ1       0.386800
     44 H7           1.9120     0.8890    -0.4960 hc         1 DJ1       0.053200
     45 H8           1.9120    -0.8890    -0.4960 hc         1 DJ1       0.053200
     46 H9           0.8150    -0.6220     3.1970 hc         1 DJ1       0.042200
     47 H10          0.4230     1.0120     2.5980 hc         1 DJ1       0.042200
     48 H11         -1.3720    -0.2830     1.6730 hc         1 DJ1       0.053200
     49 H12         -0.3060    -1.6820     1.3560 hc         1 DJ1       0.053200
     50 H13          2.0370    -3.6450    -7.5400 hc         1 DJ1       0.050256
     51 H14          3.5090    -4.5690    -7.2050 hc         1 DJ1       0.050256
     52 H15          3.6160    -2.9880    -7.9920 hc         1 DJ1       0.050256
     53 H16          1.3770    -3.9390    -5.3880 hc         1 DJ1       0.050256
     54 H17          2.0350    -2.9510    -4.0760 hc         1 DJ1       0.050256
     55 H18          2.8000    -4.4900    -4.4930 hc         1 DJ1       0.050256
     56 H19          4.7100    -2.5460    -4.4070 hc         1 DJ1       0.050256
     57 H20          5.2760    -2.4090    -6.0780 hc         1 DJ1       0.050256
     58 H21          4.9660    -4.0030    -5.3770 hc         1 DJ1       0.050256
     59 H22         -0.5730     1.3020    -6.5870 h1         1 DJ1       0.069700
     60 H23         -0.9710    -1.5720    -5.6810 h1         1 DJ1       0.080700
     61 H24         -2.2740    -0.3940    -5.8910 h1         1 DJ1       0.080700
     62 H25         -1.9620     0.6500    -1.3510 h1         1 DJ1       0.075700
     63 H26         -5.2850    -2.3070    -0.0690 h1         1 DJ1       0.061700
     64 H27         -4.7510    -1.3830     1.3420 h1         1 DJ1       0.061700
     65 H28         -7.2110    -1.5670    -1.4060 ha         1 DJ1       0.143000
     66 H29         -9.3220    -0.2490    -1.3670 ha         1 DJ1       0.142000
     67 H30         -9.6340     1.4770     0.3650 h4         1 DJ1       0.026100
     68 H31         -5.9070     0.6520     2.0080 h4         1 DJ1       0.028100
     69 H32         -0.4390    -1.2760    -8.1910 hc         1 DJ1       0.068700
     70 H33         -1.7870    -0.1330    -8.2450 hc         1 DJ1       0.068700
     71 H34         -1.4240     2.1090    -9.5970 h4         1 DJ1       0.163000
     72 H35          2.1810    -1.3610    -8.5540 ha         1 DJ1       0.141000
     73 H36          4.3540    -1.2410    -9.6740 ha         1 DJ1       0.128000
     74 H37          4.8210     0.5420   -11.3030 ha         1 DJ1       0.128000
     75 H38          3.1160     2.2290   -11.8330 ha         1 DJ1       0.124000
     76 H39          1.6630     0.7540    -6.2200 hn         1 DJ1       0.331500
     77 H40         -4.3560     0.2510    -0.9390 hn         1 DJ1       0.319500
     78 H41          0.4200     2.9800   -11.1530 hn         1 DJ1       0.294700
     79 H42         -1.9600    -1.8360    -3.1020 h1         1 DJ1       0.062200
     80 N22         -4.1240    -0.6200    -0.5030 ns         1 DJ1      -0.583900
@<TRIPOS>BOND
     1    34    26 1
     2    34    25 1
     3    31    26 ar
     4    31    30 ar
     5    12    10 1
     6    26    27 ar
     7     9    10 1
     8    25    24 2
     9    30    29 ar
    10    10    11 1
    11    10    35 1
    12    27    24 1
    13    27    28 ar
    14    24    23 1
    15    32    13 1
    16    32    14 1
    17    35    13 1
    18    29    28 ar
    19    13    36 2
    20    14    23 1
    21    14    15 1
    22    20    21 ar
    23    20    19 ar
    24    21    33 ar
    25    15    38 1
    26    33    22 ar
    27    19    18 ar
    28    38     4 1
    29    22    18 ar
    30     7     8 1
    31     7     2 1
    32    18    17 1
    33     8     1 1
    34     4    16 1
    35    80    17 1
    36    80     3 1
    37    16     3 1
    38    16     5 1
    39     2     6 1
    40     3    37 2
    41     1     5 1
    42     1     6 1
    43     1    39 1
    44     2    40 1
    45     2    41 1
    46     4    42 1
    47     5    43 1
    48     6    44 1
    49     6    45 1
    50     7    46 1
    51     7    47 1
    52     8    48 1
    53     8    49 1
    54     9    50 1
    55     9    51 1
    56     9    52 1
    57    11    53 1
    58    11    54 1
    59    11    55 1
    60    12    56 1
    61    12    57 1
    62    12    58 1
    63    14    59 1
    64    15    60 1
    65    15    61 1
    66    16    62 1
    67    17    63 1
    68    17    64 1
    69    19    65 1
    70    20    66 1
    71    21    67 1
    72    22    68 1
    73    23    69 1
    74    23    70 1
    75    25    71 1
    76    28    72 1
    77    29    73 1
    78    30    74 1
    79    31    75 1
    80    32    76 1
    81    80    77 1
    82    34    78 1
    83     4    79 1
@<TRIPOS>SUBSTRUCTURE
     1 DJ1         1 TEMP              0 ****  ****    0 ROOT
