@<TRIPOS>MOLECULE
DJ1
   80    83     1     0     0
SMALL
bcc


@<TRIPOS>ATOM
      1 C15          0.0000     0.0000     0.0000 c3         1 DJ1       0.112500
      2 C17          1.9820     0.0000     1.4740 c3         1 DJ1      -0.023900
      3 C20         -2.8840    -1.1320    -0.6360 c          1 DJ1       0.542100
      4 C12         -2.0930    -0.7710    -2.9590 c3         1 DJ1       0.103700
      5 N14         -0.5140    -0.8420    -1.0880 n7         1 DJ1      -0.561200
      6 C16          1.5430     0.0000     0.0000 c3         1 DJ1      -0.040400
      7 C18          0.6920     0.0010     2.3190 c3         1 DJ1      -0.023900
      8 C19         -0.3800    -0.6020     1.3770 c3         1 DJ1      -0.040400
      9 C01          3.0810    -3.5750    -7.2560 c3         1 DJ1      -0.036100
     10 C02          3.1920    -2.9010    -5.8870 c3         1 DJ1       0.195800
     11 C03          2.2850    -3.6230    -4.8880 c3         1 DJ1      -0.036100
     12 C04          4.6420    -2.9700    -5.4020 c3         1 DJ1      -0.036100
     13 C06          1.5050    -1.2770    -6.3450 c          1 DJ1       0.698100
     14 C09         -0.3730     0.2410    -6.6690 c3         1 DJ1       0.072700
     15 C10         -1.2250    -0.5200    -5.6500 c3         1 DJ1       0.028700
     16 C13         -1.8630    -0.4200    -1.4870 c3         1 DJ1       0.067500
     17 C23         -5.1160    -1.3120     0.3250 c3         1 DJ1       0.117300
     18 C24         -6.4100    -0.5390     0.3080 ca         1 DJ1      -0.251600
     19 C25         -7.3730    -0.8040    -0.6540 ca         1 DJ1      -0.050000
     20 C26         -8.5480    -0.0680    -0.6310 ca         1 DJ1      -0.222300
     21 C27         -8.7200     0.8970     0.3420 ca         1 DJ1       0.414200
     22 C29         -6.6550     0.4390     1.2540 ca         1 DJ1       0.422200
     23 C30         -0.7210    -0.2360    -8.0810 c3         1 DJ1       0.030800
     24 C31          0.0260     0.5970    -9.0900 cc         1 DJ1      -0.153400
     25 C32         -0.4360     1.6840    -9.7280 cd         1 DJ1      -0.269100
     26 C34          1.6580     1.3970   -10.4890 ca         1 DJ1      -0.227200
     27 C35          1.3970     0.3760    -9.5580 ca         1 DJ1      -0.093800
     28 C36          2.3790    -0.5730    -9.2710 ca         1 DJ1      -0.065000
     29 C37          3.5920    -0.5050    -9.8960 ca         1 DJ1      -0.128000
     30 C38          3.8550     0.5010   -10.8150 ca         1 DJ1      -0.084000
     31 C39          2.9010     1.4480   -11.1140 ca         1 DJ1      -0.105000
     32 N08          1.0450    -0.0110    -6.4050 ns         1 DJ1      -0.150900
     33 N28         -7.7810     1.1230     1.2420 nb         1 DJ1      -0.580000
     34 N33          0.5250     2.1750   -10.5690 na         1 DJ1       0.355600
     35 O05          2.7840    -1.5120    -5.9960 os         1 DJ1      -0.412900
     36 O07          0.7660    -2.2050    -6.6060 o          1 DJ1      -0.680000
     37 O21         -2.5900    -2.1640    -0.0720 o          1 DJ1      -0.642100
     38 S11         -0.9030     0.1310    -3.9880 ss         1 DJ1      -0.400200
     39 H1          -0.3770     1.0120    -0.0860 h1         1 DJ1       0.032700
     40 H2           2.5630    -0.8900     1.6870 hc         1 DJ1       0.012450
     41 H3           2.5640     0.8890     1.6870 hc         1 DJ1       0.012450
     42 H4          -3.1010    -0.4920    -3.2430 h1         1 DJ1       0.037700
     43 H5          -0.5380    -1.7970    -0.7890 hn         1 DJ1       0.294800
     44 H7           1.9120     0.8890    -0.4960 hc         1 DJ1       0.024450
     45 H8           1.9120    -0.8890    -0.4960 hc         1 DJ1       0.024450
     46 H9           0.8150    -0.6220     3.1970 hc         1 DJ1       0.012450
     47 H10          0.4230     1.0120     2.5980 hc         1 DJ1       0.012450
     48 H11         -1.3720    -0.2830     1.6730 hc         1 DJ1       0.024450
     49 H12         -0.3060    -1.6820     1.3560 hc         1 DJ1       0.024450
     50 H13          2.0370    -3.6450    -7.5400 hc         1 DJ1       0.020811
     51 H14          3.5090    -4.5690    -7.2050 hc         1 DJ1       0.020811
     52 H15          3.6160    -2.9880    -7.9920 hc         1 DJ1       0.020811
     53 H16          1.3770    -3.9390    -5.3880 hc         1 DJ1       0.020811
     54 H17          2.0350    -2.9510    -4.0760 hc         1 DJ1       0.020811
     55 H18          2.8000    -4.4900    -4.4930 hc         1 DJ1       0.020811
     56 H19          4.7100    -2.5460    -4.4070 hc         1 DJ1       0.020811
     57 H20          5.2760    -2.4090    -6.0780 hc         1 DJ1       0.020811
     58 H21          4.9660    -4.0030    -5.3770 hc         1 DJ1       0.020811
     59 H22         -0.5730     1.3020    -6.5870 h1         1 DJ1       0.042700
     60 H23         -0.9710    -1.5720    -5.6810 h1         1 DJ1       0.064700
     61 H24         -2.2740    -0.3940    -5.8910 h1         1 DJ1       0.064700
     62 H25         -1.9620     0.6500    -1.3510 h1         1 DJ1       0.051700
     63 H26         -5.2850    -2.3070    -0.0690 h1         1 DJ1       0.032200
     64 H27         -4.7510    -1.3830     1.3420 h1         1 DJ1       0.032200
     65 H28         -7.2110    -1.5670    -1.4060 ha         1 DJ1       0.114000
     66 H29         -9.3220    -0.2490    -1.3670 ha         1 DJ1       0.116000
     67 H30         -9.6340     1.4770     0.3650 h4         1 DJ1      -0.017900
     68 H31         -5.9070     0.6520     2.0080 h4         1 DJ1      -0.015900
     69 H32         -0.4390    -1.2760    -8.1910 hc         1 DJ1       0.042200
     70 H33         -1.7870    -0.1330    -8.2450 hc         1 DJ1       0.042200
     71 H34         -1.4240     2.1090    -9.5970 h4         1 DJ1       0.139000
     72 H35          2.1810    -1.3610    -8.5540 ha         1 DJ1       0.123000
     73 H36          4.3540    -1.2410    -9.6740 ha         1 DJ1       0.104000
     74 H37          4.8210     0.5420   -11.3030 ha         1 DJ1       0.099000
     75 H38          3.1160     2.2290   -11.8330 ha         1 DJ1       0.098000
     76 H39          1.6630     0.7540    -6.2200 hn         1 DJ1       0.182500
     77 H40         -4.3560     0.2510    -0.9390 hn         1 DJ1       0.180500
     78 H41          0.4200     2.9800   -11.1530 hn         1 DJ1       0.112700
     79 H42         -1.9600    -1.8360    -3.1020 h1         1 DJ1       0.037700
     80 N22         -4.1240    -0.6200    -0.5030 ns         1 DJ1      -0.192900
@<TRIPOS>BOND
     1     1     5 1   
     2     1     6 1   
     3     1     8 1   
     4     1    39 1   
     5     2     6 1   
     6     2     7 1   
     7     2    40 1   
     8     2    41 1   
     9     3    16 1   
    10     3    37 2   
    11     3    80 1   
    12     4    16 1   
    13     4    38 1   
    14     4    42 1   
    15     4    79 1   
    16     5    16 1   
    17     5    43 1   
    18     6    44 1   
    19     6    45 1   
    20     7     8 1   
    21     7    46 1   
    22     7    47 1   
    23     8    48 1   
    24     8    49 1   
    25     9    10 1   
    26     9    50 1   
    27     9    51 1   
    28     9    52 1   
    29    10    11 1   
    30    10    12 1   
    31    10    35 1   
    32    11    53 1   
    33    11    54 1   
    34    11    55 1   
    35    12    56 1   
    36    12    57 1   
    37    12    58 1   
    38    13    32 1   
    39    13    35 1   
    40    13    36 2   
    41    14    15 1   
    42    14    23 1   
    43    14    32 1   
    44    14    59 1   
    45    15    38 1   
    46    15    60 1   
    47    15    61 1   
    48    16    62 1   
    49    17    18 1   
    50    17    63 1   
    51    17    64 1   
    52    17    80 1   
    53    18    19 ar  
    54    18    22 ar  
    55    19    20 ar  
    56    19    65 1   
    57    20    21 ar  
    58    20    66 1   
    59    21    33 ar  
    60    21    67 1   
    61    22    33 ar  
    62    22    68 1   
    63    23    24 1   
    64    23    69 1   
    65    23    70 1   
    66    24    25 2   
    67    24    27 1   
    68    25    34 1   
    69    25    71 1   
    70    26    27 ar  
    71    26    31 ar  
    72    26    34 1   
    73    27    28 ar  
    74    28    29 ar  
    75    28    72 1   
    76    29    30 ar  
    77    29    73 1   
    78    30    31 ar  
    79    30    74 1   
    80    31    75 1   
    81    32    76 1   
    82    34    78 1   
    83    77    80 1   
@<TRIPOS>SUBSTRUCTURE
     1 DJ1         1 TEMP              0 ****  ****    0 ROOT
