@<TRIPOS>MOLECULE
molecule
   52    52     1     0     0
SMALL
bcc


@<TRIPOS>ATOM
      1 OAB          0.0000     0.0000     0.0000 o          1 DJ3      -0.854800
      2 CAU          1.2080     0.0000     0.0000 c          1 DJ3       0.891600
      3 OAC          1.8790     0.0000     1.1620 o          1 DJ3      -0.854800
      4 CAR          1.9610    -0.0090    -1.3060 c3         1 DJ3      -0.183400
      5 CAQ          0.9670    -0.0150    -2.4690 c3         1 DJ3      -0.062400
      6 CAS          1.7310    -0.0220    -3.7930 c3         1 DJ3      -0.078400
      7 CAW          0.7370    -0.0290    -4.9560 cx         1 DJ3       0.086100
      8 OAT          0.7690    -1.1390    -5.8540 op         1 DJ3      -0.384600
      9 CAV          1.2980     0.0810    -6.3750 cx         1 DJ3       0.035300
     10 CAK          0.4770     0.8220    -7.4000 c2         1 DJ3      -0.112200
     11 CAG          0.9790     1.9000    -8.0030 ce         1 DJ3      -0.162000
     12 CAE          0.1810     2.6180    -8.9990 cf         1 DJ3      -0.152000
     13 CAD          0.6890     3.7090    -9.6100 ce         1 DJ3      -0.147000
     14 CAF         -0.1080     4.4290   -10.6050 ce         1 DJ3      -0.174000
     15 CAH          0.3570     5.5560   -11.1440 c2         1 DJ3      -0.228200
     16 CAM          1.7620     6.0100   -10.8430 c3         1 DJ3       0.305000
     17 CAI          2.5080     6.2220   -12.1360 c2         1 DJ3      -0.177200
     18 CAJ          3.1220     7.3580   -12.3580 c2         1 DJ3      -0.249200
     19 CAN          3.2160     8.3910   -11.2660 c3         1 DJ3       0.016800
     20 CAP          4.6790     8.7920   -11.0670 c3         1 DJ3      -0.091400
     21 CAO          4.7740     9.8410    -9.9560 c3         1 DJ3      -0.090400
     22 CAL          6.2370    10.2410    -9.7580 c3         1 DJ3      -0.082400
     23 CAA          6.3330    11.2900    -8.6480 c3         1 DJ3      -0.092100
     24 HAY          2.5850     0.8750    -1.3690 hc         1 DJ3       0.027700
     25 HAX          2.5830    -0.8940    -1.3580 hc         1 DJ3       0.027700
     26 HAV          0.3430    -0.8980    -2.4060 hc         1 DJ3       0.050200
     27 HAW          0.3440     0.8700    -2.4160 hc         1 DJ3       0.050200
     28 HAZ          2.3530     0.8620    -3.8550 hc         1 DJ3       0.046700
     29 HA0          2.3530    -0.9070    -3.8450 hc         1 DJ3       0.046700
     30 HA2         -0.2410     0.4170    -4.8180 h1         1 DJ3       0.094700
     31 HA1          2.3790     0.1190    -6.4350 h1         1 DJ3       0.093700
     32 HAK         -0.5200     0.4780    -7.6460 ha         1 DJ3       0.138000
     33 HAG          1.9760     2.2430    -7.7570 ha         1 DJ3       0.123000
     34 HAE         -0.8160     2.2750    -9.2440 ha         1 DJ3       0.145000
     35 HAD          1.6860     4.0520    -9.3640 ha         1 DJ3       0.143000
     36 HAF          0.6740     3.7400   -10.9000 ha         1 DJ3       0.171000
     37 HAH          0.5890     6.1140   -10.2450 ha         1 DJ3       0.005000
     38 HAN          1.7290     6.9400   -10.2880 hc         1 DJ3       0.053700
     39 HAO          2.2670     5.2550   -10.2540 hc         1 DJ3       0.053700
     40 HAI          3.0200     5.9010   -11.2370 ha         1 DJ3      -0.004000
     41 HAJ          2.3120     8.0530   -12.1710 ha         1 DJ3       0.118000
     42 HAP          2.8260     7.9780   -10.3440 hc         1 DJ3       0.043200
     43 HAQ          2.6370     9.2640   -11.5440 hc         1 DJ3       0.043200
     44 HAT          5.0690     9.2060   -11.9890 hc         1 DJ3       0.054200
     45 HAU          5.2580     7.9190   -10.7900 hc         1 DJ3       0.054200
     46 HAS          4.3840     9.4270    -9.0340 hc         1 DJ3       0.040200
     47 HAR          4.1950    10.7130   -10.2340 hc         1 DJ3       0.040200
     48 HAM          6.6270    10.6550   -10.6800 hc         1 DJ3       0.041700
     49 HAL          6.8160     9.3680    -9.4800 hc         1 DJ3       0.041700
     50 HAC          5.7490    12.1610    -8.9230 hc         1 DJ3       0.033033
     51 HAB          5.9480    10.8750    -7.7250 hc         1 DJ3       0.033033
     52 HAA          7.3680    11.5780    -8.5110 hc         1 DJ3       0.033033
@<TRIPOS>BOND
     1     1     2 1
     2     2     3 1
     3     2     4 1
     4     4     5 1
     5     5     6 1
     6     6     7 1
     7    14    15 2
     8    14    13 1
     9    12    13 2
    10    12    11 1
    11    10    11 2
    12    10     9 1
    13     7     9 1
    14     7     8 1
    15    15    16 1
    16     9     8 1
    17    16    17 1
    18    17    18 2
    19    19    18 1
    20    19    20 1
    21    21    20 1
    22    21    22 1
    23    22    23 1
    24     4    24 1
    25     4    25 1
    26     5    26 1
    27     5    27 1
    28     6    28 1
    29     6    29 1
    30     7    30 1
    31     9    31 1
    32    10    32 1
    33    11    33 1
    34    12    34 1
    35    13    35 1
    36    14    36 1
    37    15    37 1
    38    16    38 1
    39    16    39 1
    40    17    40 1
    41    18    41 1
    42    19    42 1
    43    19    43 1
    44    20    44 1
    45    20    45 1
    46    21    46 1
    47    21    47 1
    48    22    48 1
    49    22    49 1
    50    23    50 1
    51    23    51 1
    52    23    52 1
@<TRIPOS>SUBSTRUCTURE
     1 DJ3         1 TEMP              0 ****  ****    0 ROOT
