@<TRIPOS>MOLECULE
molecule
   22    23     1     0     0
SMALL
bcc


@<TRIPOS>ATOM
      1 C            0.0000     0.0000     0.0000 ca         1 DJ6      -0.230300
      2 N           -0.0200    -0.0000     2.3500 nb         1 DJ6      -0.668000
      3 O            3.4670     1.5880     0.0200 o          1 DJ6      -0.568100
      4 S            7.9800     1.3070    -0.5220 ss         1 DJ6       0.000200
      5 Cl           5.6340     3.2160    -0.8920 cl         1 DJ6       0.002600
      6 C1           1.3850     0.0000     0.0000 ca         1 DJ6      -0.104000
      7 Cl1          9.0130    -1.3920     0.5750 cl         1 DJ6      -0.039400
      8 C2           2.0460     0.0000     1.2260 ca         1 DJ6      -0.035700
      9 C3           1.2970    -0.0000     2.3950 ca         1 DJ6       0.385200
     10 C4          -0.6760    -0.0000     1.2050 ca         1 DJ6       0.392200
     11 C5           4.1540     0.6320     0.3220 c          1 DJ6       0.667700
     12 C6           5.6620     0.7580     0.3390 cc         1 DJ6      -0.151600
     13 C7           6.4960    -0.3680     0.6940 cc         1 DJ6      -0.130000
     14 C8           7.7570    -0.2250     0.3050 cd         1 DJ6       0.047300
     15 C9           6.3410     1.7350    -0.3240 cd         1 DJ6       0.090300
     16 H           -0.5480     0.0000    -0.9350 ha         1 DJ6       0.140000
     17 H1           1.9400     0.0000    -0.9300 ha         1 DJ6       0.149000
     18 HN1          3.9170    -0.4690     2.0250 hn         1 DJ6       0.313500
     19 H3           1.8010    -0.0000     3.3540 h4         1 DJ6       0.022100
     20 H4          -1.7590    -0.0000     1.2110 h4         1 DJ6       0.023100
     21 H7           6.1020    -1.3410     0.9630 ha         1 DJ6       0.169000
     22 N1           3.4440     0.0010     1.2780 ns         1 DJ6      -0.474100
@<TRIPOS>BOND
     1     1     6 ar
     2     1    10 ar
     3     2     9 ar
     4     2    10 ar
     5     3    11 2
     6     4    14 1
     7     4    15 1
     8     5    15 1
     9     6     8 ar
    10    22     8 1
    11    22    11 1
    12     7    14 1
    13     8     9 ar
    14    11    12 1
    15    12    13 1
    16    12    15 2
    17    13    14 2
    18     1    16 1
    19     6    17 1
    20    22    18 1
    21     9    19 1
    22    10    20 1
    23    13    21 1
@<TRIPOS>SUBSTRUCTURE
     1 DJ6         1 TEMP              0 ****  ****    0 ROOT
