@<TRIPOS>MOLECULE
DJB
   33    33     1     0     0
SMALL
bcc


@<TRIPOS>ATOM
      1 C11          0.0000     0.0000     0.0000 c3         1 DJB      -0.069100
      2 C10          1.5080     0.0000     0.0000 c          1 DJB       0.561100
      3 O10          2.1140     0.0000     1.0510 o          1 DJB      -0.655100
      4 N2           2.1820     0.0010    -1.1670 ns         1 DJB      -0.172900
      5 C2           3.6460     0.0010    -1.1670 c3         1 DJB      -0.022300
      6 C13          3.1020     3.9170    -3.9770 c3         1 DJB      -0.040100
      7 C12          3.5350     2.4840    -3.8020 c          1 DJB       0.683100
      8 O12          3.6990     1.7810    -4.7710 o          1 DJB      -0.588000
      9 C3           4.1590     0.6030    -2.4780 c3         1 DJB       0.145100
     10 O3           3.7400     1.9910    -2.5710 os         1 DJB      -0.403900
     11 C4           5.6880     0.5270    -2.5000 c3         1 DJB       0.156100
     12 O4           6.2210     1.3170    -1.4340 oh         1 DJB      -0.561800
     13 C5           6.1220    -0.9310    -2.3220 c3         1 DJB       0.063100
     14 C6           7.6260    -1.0070    -2.2830 c          1 DJB       0.985600
     15 O6B          8.1860    -1.3670    -1.2760 o          1 DJB      -0.881300
     16 O6A          8.3430    -0.6740    -3.3680 o          1 DJB      -0.881300
     17 O5           5.5860    -1.4400    -1.0990 os         1 DJB      -0.358600
     18 C1           4.1580    -1.4370    -1.0410 c3         1 DJB       0.373900
     19 O1           3.6360    -2.2250    -2.1130 oh         1 DJB      -0.626800
     20 H1          -0.3610     0.7770    -0.6630 hc         1 DJB       0.015700
     21 H2          -0.3610     0.1850     1.0040 hc         1 DJB       0.015700
     22 H3          -0.3610    -0.9620    -0.3420 hc         1 DJB       0.015700
     23 H4           1.6810    -0.0350    -2.0330 hn         1 DJB       0.171500
     24 H5           4.0130     0.5880    -0.3330 h1         1 DJB       0.095700
     25 H6           3.7020     4.3840    -4.7500 hc         1 DJB       0.021700
     26 H7           3.2360     4.4520    -3.0450 hc         1 DJB       0.021700
     27 H8           2.0580     3.9470    -4.2640 hc         1 DJB       0.021700
     28 H9           3.7580     0.0420    -3.3140 h1         1 DJB       0.054700
     29 H10          6.0540     0.8980    -3.4490 h1         1 DJB       0.038700
     30 H11          6.6560     2.0730    -1.7910 ho         1 DJB       0.380000
     31 H12          5.7470    -1.5200    -3.1500 h1         1 DJB       0.023700
     32 H14          3.8370    -1.8510    -0.0930 h2         1 DJB       0.023700
     33 H15          3.4880    -3.1060    -1.8130 ho         1 DJB       0.392000
@<TRIPOS>BOND
     1     1     2 1   
     2     1    20 1   
     3     1    21 1   
     4     1    22 1   
     5     2     3 2   
     6     2     4 1   
     7     4     5 1   
     8     4    23 1   
     9     5     9 1   
    10     5    18 1   
    11     5    24 1   
    12     6     7 1   
    13     6    25 1   
    14     6    26 1   
    15     6    27 1   
    16     7     8 2   
    17     7    10 1   
    18     9    10 1   
    19     9    11 1   
    20     9    28 1   
    21    11    12 1   
    22    11    13 1   
    23    11    29 1   
    24    12    30 1   
    25    13    14 1   
    26    13    17 1   
    27    13    31 1   
    28    14    15 1   
    29    14    16 1   
    30    17    18 1   
    31    18    19 1   
    32    18    32 1   
    33    19    33 1   
@<TRIPOS>SUBSTRUCTURE
     1 DJB         1 TEMP              0 ****  ****    0 ROOT
