@<TRIPOS>MOLECULE
molecule
   33    33     1     0     0
SMALL
bcc


@<TRIPOS>ATOM
      1 C11          0.0000     0.0000     0.0000 c3         1 DJB      -0.173100
      2 C10          1.5080     0.0000     0.0000 c          1 DJB       0.651100
      3 O10          2.1140     0.0000     1.0510 o          1 DJB      -0.616100
      4 N2           2.1820     0.0010    -1.1670 ns         1 DJB      -0.571900
      5 C2           3.6460     0.0010    -1.1670 c3         1 DJB       0.102700
      6 C13          3.1020     3.9170    -3.9770 c3         1 DJB      -0.142100
      7 C12          3.5350     2.4840    -3.8020 c          1 DJB       0.623100
      8 O12          3.6990     1.7810    -4.7710 o          1 DJB      -0.554000
      9 C3           4.1590     0.6030    -2.4780 c3         1 DJB       0.113100
     10 O3           3.7400     1.9910    -2.5710 os         1 DJB      -0.421900
     11 C4           5.6880     0.5270    -2.5000 c3         1 DJB       0.123100
     12 O4           6.2210     1.3170    -1.4340 oh         1 DJB      -0.580800
     13 C5           6.1220    -0.9310    -2.3220 c3         1 DJB       0.035100
     14 C6           7.6260    -1.0070    -2.2830 c          1 DJB       0.905600
     15 O6B          8.1860    -1.3670    -1.2760 o          1 DJB      -0.825300
     16 O6A          8.3430    -0.6740    -3.3680 o          1 DJB      -0.825300
     17 O5           5.5860    -1.4400    -1.0990 os         1 DJB      -0.375600
     18 C1           4.1580    -1.4370    -1.0410 c3         1 DJB       0.315900
     19 O1           3.6360    -2.2250    -2.1130 oh         1 DJB      -0.642800
     20 H1          -0.3610     0.7770    -0.6630 hc         1 DJB       0.053367
     21 H2          -0.3610     0.1850     1.0040 hc         1 DJB       0.053367
     22 H3          -0.3610    -0.9620    -0.3420 hc         1 DJB       0.053367
     23 H4           1.6810    -0.0350    -2.0330 hn         1 DJB       0.312500
     24 H5           4.0130     0.5880    -0.3330 h1         1 DJB       0.122700
     25 H6           3.7020     4.3840    -4.7500 hc         1 DJB       0.062367
     26 H7           3.2360     4.4520    -3.0450 hc         1 DJB       0.062367
     27 H8           2.0580     3.9470    -4.2640 hc         1 DJB       0.062367
     28 H9           3.7580     0.0420    -3.3140 h1         1 DJB       0.083700
     29 H10          6.0540     0.8980    -3.4490 h1         1 DJB       0.071700
     30 H11          6.6560     2.0730    -1.7910 ho         1 DJB       0.394000
     31 H12          5.7470    -1.5200    -3.1500 h1         1 DJB       0.051700
     32 H14          3.8370    -1.8510    -0.0930 h2         1 DJB       0.072700
     33 H15          3.4880    -3.1060    -1.8130 ho         1 DJB       0.402000
@<TRIPOS>BOND
     1     1     2 1
     2     3     2 2
     3     2     4 1
     4     4     5 1
     5     5    18 1
     6     5     9 1
     7     8     7 2
     8    10     7 1
     9    10     9 1
    10    18    19 1
    11    18    17 1
    12     7     6 1
    13     9    11 1
    14    12    11 1
    15    17    13 1
    16    11    13 1
    17    13    14 1
    18    14    15 1
    19    14    16 1
    20     1    20 1
    21     1    21 1
    22     1    22 1
    23     4    23 1
    24     5    24 1
    25     6    25 1
    26     6    26 1
    27     6    27 1
    28     9    28 1
    29    11    29 1
    30    12    30 1
    31    13    31 1
    32    18    32 1
    33    19    33 1
@<TRIPOS>SUBSTRUCTURE
     1 DJB         1 TEMP              0 ****  ****    0 ROOT
