@<TRIPOS>MOLECULE
DJE
   28    28     1     0     0
SMALL
bcc


@<TRIPOS>ATOM
      1 C11          0.0000     0.0000     0.0000 c3         1 DJE      -0.070100
      2 C10          1.5070     0.0000     0.0000 c          1 DJE       0.560100
      3 O10          2.1150     0.0000     1.0500 o          1 DJE      -0.655100
      4 N2           2.1810    -0.0000    -1.1690 ns         1 DJE      -0.165900
      5 O1           3.6340    -2.2200    -2.1270 oh         1 DJE      -0.629800
      6 C2           3.6450    -0.0010    -1.1690 c3         1 DJE      -0.025300
      7 C3           4.1570     0.6090    -2.4780 c3         1 DJE       0.150100
      8 O3           3.7450     1.9750    -2.5620 oh         1 DJE      -0.588800
      9 C4           5.6860     0.5330    -2.5010 c3         1 DJE       0.158100
     10 O4           6.2190     1.3180    -1.4330 oh         1 DJE      -0.555800
     11 C5           6.1190    -0.9260    -2.3310 c3         1 DJE       0.061100
     12 C6           7.6240    -1.0020    -2.2940 c          1 DJE       0.985600
     13 O6B          8.1850    -1.3680    -1.2880 o          1 DJE      -0.883300
     14 O6A          8.3410    -0.6650    -3.3780 o          1 DJE      -0.883300
     15 O5           5.5850    -1.4410    -1.1110 os         1 DJE      -0.357600
     16 C1           4.1570    -1.4390    -1.0510 c3         1 DJE       0.372900
     17 H1          -0.3610    -0.8730    -0.5300 hc         1 DJE       0.015033
     18 H2          -0.3610     0.8950    -0.4910 hc         1 DJE       0.015033
     19 H3          -0.3610    -0.0220     1.0210 hc         1 DJE       0.015033
     20 H4           1.6800     0.0490    -2.0340 hn         1 DJE       0.165500
     21 H6           4.0120     0.5820    -0.3330 h1         1 DJE       0.097700
     22 H7           3.7560     0.0520    -3.3160 h1         1 DJE       0.010700
     23 H8           3.5030     2.1770    -3.4510 ho         1 DJE       0.375000
     24 H9           6.0510     0.9080    -3.4490 h1         1 DJE       0.022700
     25 H10          6.6670     2.0680    -1.7880 ho         1 DJE       0.380000
     26 H11          5.7430    -1.5100    -3.1630 h1         1 DJE       0.016700
     27 H13          3.8370    -1.8580    -0.1050 h2         1 DJE       0.022700
     28 H5           3.4870    -3.1040    -1.8310 ho         1 DJE       0.391000
@<TRIPOS>BOND
     1     1     2 1   
     2     1    17 1   
     3     1    18 1   
     4     1    19 1   
     5     2     3 2   
     6     2     4 1   
     7     4     6 1   
     8     4    20 1   
     9     5    16 1   
    10     5    28 1   
    11     6     7 1   
    12     6    16 1   
    13     6    21 1   
    14     7     8 1   
    15     7     9 1   
    16     7    22 1   
    17     8    23 1   
    18     9    10 1   
    19     9    11 1   
    20     9    24 1   
    21    10    25 1   
    22    11    12 1   
    23    11    15 1   
    24    11    26 1   
    25    12    13 1   
    26    12    14 1   
    27    15    16 1   
    28    16    27 1   
@<TRIPOS>SUBSTRUCTURE
     1 DJE         1 TEMP              0 ****  ****    0 ROOT
