@<TRIPOS>MOLECULE
molecule
   60    64     1     0     0
SMALL
bcc


@<TRIPOS>ATOM
      1 C4           0.0000     0.0000     0.0000 ca         1 DJH      -0.003200
      2 C7           1.8200     0.0010    -1.4020 cc         1 DJH       0.384800
      3 C8           1.4100     0.0000     0.0000 ca         1 DJH      -0.267900
      4 N12          3.2030    -0.7790     3.8560 n          1 DJH      -0.481800
      5 C13          3.6050    -1.7290     2.8100 c3         1 DJH       0.091500
      6 C15          4.6710    -3.0580     4.6340 c3         1 DJH      -0.089700
      7 C17          4.0100    -0.6900     5.0800 c3         1 DJH       0.091500
      8 C21          6.0530    -2.6300     4.1960 c          1 DJH       0.728500
      9 C24          8.6030    -4.1800     2.8760 c          1 DJH       0.642100
     10 C28         11.6350    -4.7860     0.8100 c3         1 DJH       0.601900
     11 C1           1.3930    -0.0010     2.4050 ca         1 DJH      -0.185600
     12 C2          -0.0100     0.0010     2.3900 ca         1 DJH      -0.037000
     13 C3          -0.6930     0.0010     1.2110 ca         1 DJH      -0.170000
     14 N5          -0.3930     0.0060    -1.3100 na         1 DJH      -0.051100
     15 N6           0.7400     0.0040    -2.1300 nd         1 DJH      -0.499100
     16 C9           2.1040     0.0000     1.2100 ca         1 DJH      -0.030000
     17 O11          1.7300     0.7050     4.6060 o          1 DJH      -0.613100
     18 C14          3.7320    -3.1240     3.4330 c3         1 DJH      -0.075900
     19 C16          4.1340    -2.0910     5.6910 c3         1 DJH      -0.075900
     20 C18          4.8720    -4.4300     5.2240 ca         1 DJH      -0.133300
     21 C19          6.2300    -4.7050     5.1120 ca         1 DJH       0.065600
     22 N20          6.8910    -3.6340     4.5070 n          1 DJH      -0.353000
     23 O22          6.3490    -1.5810     3.6640 o          1 DJH      -0.608500
     24 C23          8.3320    -3.6080     4.2430 c3         1 DJH       0.038000
     25 O25          7.6820    -4.5730     2.1900 o          1 DJH      -0.581100
     26 N26          9.8670    -4.2570     2.4160 ns         1 DJH      -0.589900
     27 C27         10.1300    -4.8150     1.0860 c3         1 DJH       0.069000
     28 F29         12.3000    -5.5490     1.7760 f          1 DJH      -0.221967
     29 F30         11.8860    -5.3190    -0.4590 f          1 DJH      -0.221967
     30 F31         12.0930    -3.4660     0.8620 f          1 DJH      -0.221967
     31 C32          6.7140    -5.9240     5.5840 ca         1 DJH      -0.158000
     32 C33          5.8520    -6.8380     6.1530 ca         1 DJH      -0.090000
     33 C34          4.5020    -6.5540     6.2570 ca         1 DJH      -0.151000
     34 C35          4.0140    -5.3450     5.7910 ca         1 DJH      -0.025300
     35 C36          2.5450    -5.0310     5.9040 c3         1 DJH      -0.053800
     36 H1           2.8380    -0.0020    -1.7700 h4         1 DJH       0.065800
     37 H2           4.5600    -1.4290     2.3960 h1         1 DJH       0.073450
     38 H3           2.8540    -1.7480     2.0290 h1         1 DJH       0.073450
     39 H4           4.9960    -0.3120     4.8370 h1         1 DJH       0.073450
     40 H5           3.5250    -0.0280     5.7870 h1         1 DJH       0.073450
     41 H6          -0.5560     0.0030     3.3250 ha         1 DJH       0.152000
     42 H7          -1.7760     0.0020     1.2140 ha         1 DJH       0.135000
     43 H8          -1.3410     0.0090    -1.6320 hn         1 DJH       0.333700
     44 H9           3.1770     0.1500     1.2190 ha         1 DJH       0.146000
     45 H10          4.1340    -3.8120     2.6990 hc         1 DJH       0.061700
     46 H11          2.7560    -3.4640     3.7580 hc         1 DJH       0.061700
     47 H12          3.1600    -2.4260     6.0240 hc         1 DJH       0.061700
     48 H13          4.8180    -2.0580     6.5300 hc         1 DJH       0.061700
     49 H14          8.6880    -2.5850     4.2840 h1         1 DJH       0.083700
     50 H15          8.8470    -4.1990     4.9910 h1         1 DJH       0.083700
     51 H16         10.6240    -3.9060     2.9690 hn         1 DJH       0.326500
     52 H17          9.6140    -4.2240     0.3390 h1         1 DJH       0.091200
     53 H18          9.7750    -5.8370     1.0470 h1         1 DJH       0.091200
     54 H19          7.7700    -6.1530     5.5050 ha         1 DJH       0.129000
     55 H20          6.2330    -7.7840     6.5180 ha         1 DJH       0.136000
     56 H21          3.8290    -7.2750     6.7050 ha         1 DJH       0.137000
     57 H22          2.4120    -4.1300     6.4900 hc         1 DJH       0.048700
     58 H23          2.1300    -4.8830     4.9150 hc         1 DJH       0.048700
     59 H24          2.0360    -5.8560     6.3890 hc         1 DJH       0.048700
     60 C10          2.1160     0.0000     3.6930 c          1 DJH       0.680700
@<TRIPOS>BOND
     1    33    32 ar
     2    33    34 ar
     3    32    31 ar
     4    35    34 1
     5    34    20 ar
     6    31    21 ar
     7    20    21 ar
     8    20     6 1
     9     2    15 2
    10     2     3 1
    11    21    22 1
    12    15    14 1
    13     3    16 ar
    14     3     1 ar
    15    16    11 ar
    16     6    18 1
    17     6    19 1
    18     6     8 1
    19    18     5 1
    20    19     7 1
    21    14     1 1
    22    22     8 1
    23    22    24 1
    24     1    13 ar
    25    11    60 1
    26    11    12 ar
    27    60    17 2
    28    60     4 1
    29     8    23 2
    30     4     5 1
    31     4     7 1
    32    24     9 1
    33    25     9 2
    34     9    26 1
    35    13    12 ar
    36    26    27 1
    37    27    10 1
    38    10    28 1
    39    10    29 1
    40    10    30 1
    41     2    36 1
    42     5    37 1
    43     5    38 1
    44     7    39 1
    45     7    40 1
    46    12    41 1
    47    13    42 1
    48    14    43 1
    49    16    44 1
    50    18    45 1
    51    18    46 1
    52    19    47 1
    53    19    48 1
    54    24    49 1
    55    24    50 1
    56    26    51 1
    57    27    52 1
    58    27    53 1
    59    31    54 1
    60    32    55 1
    61    33    56 1
    62    35    57 1
    63    35    58 1
    64    35    59 1
@<TRIPOS>SUBSTRUCTURE
     1 DJH         1 TEMP              0 ****  ****    0 ROOT
