@<TRIPOS>MOLECULE
DJH
   60    64     1     0     0
SMALL
bcc


@<TRIPOS>ATOM
      1 C4           0.0000     0.0000     0.0000 ca         1 DJH      -0.170200
      2 C7           1.8200     0.0010    -1.4020 cc         1 DJH       0.445800
      3 C8           1.4100     0.0000     0.0000 ca         1 DJH      -0.280900
      4 N12          3.2030    -0.7790     3.8560 n          1 DJH      -0.133800
      5 C13          3.6050    -1.7290     2.8100 c3         1 DJH       0.015500
      6 C15          4.6710    -3.0580     4.6340 c3         1 DJH      -0.082700
      7 C17          4.0100    -0.6900     5.0800 c3         1 DJH       0.015500
      8 C21          6.0530    -2.6300     4.1960 c          1 DJH       0.639500
      9 C24          8.6030    -4.1800     2.8760 c          1 DJH       0.559100
     10 C28         11.6350    -4.7860     0.8100 c3         1 DJH       0.557900
     11 C1           1.3930    -0.0010     2.4050 ca         1 DJH      -0.192600
     12 C2          -0.0100     0.0010     2.3900 ca         1 DJH      -0.006000
     13 C3          -0.6930     0.0010     1.2110 ca         1 DJH      -0.133000
     14 N5          -0.3930     0.0060    -1.3100 na         1 DJH       0.415900
     15 N6           0.7400     0.0040    -2.1300 nd         1 DJH      -0.636100
     16 C9           2.1040     0.0000     1.2100 ca         1 DJH       0.004000
     17 O11          1.7300     0.7050     4.6060 o          1 DJH      -0.656100
     18 C14          3.7320    -3.1240     3.4330 c3         1 DJH      -0.022900
     19 C16          4.1340    -2.0910     5.6910 c3         1 DJH      -0.022900
     20 C18          4.8720    -4.4300     5.2240 ca         1 DJH      -0.137300
     21 C19          6.2300    -4.7050     5.1120 ca         1 DJH      -0.075400
     22 N20          6.8910    -3.6340     4.5070 n          1 DJH       0.052000
     23 O22          6.3490    -1.5810     3.6640 o          1 DJH      -0.652500
     24 C23          8.3320    -3.6080     4.2430 c3         1 DJH      -0.029000
     25 O25          7.6820    -4.5730     2.1900 o          1 DJH      -0.625100
     26 N26          9.8670    -4.2570     2.4160 ns         1 DJH      -0.190900
     27 C27         10.1300    -4.8150     1.0860 c3         1 DJH      -0.006000
     28 F29         12.3000    -5.5490     1.7760 f          1 DJH      -0.202300
     29 F30         11.8860    -5.3190    -0.4590 f          1 DJH      -0.202300
     30 F31         12.0930    -3.4660     0.8620 f          1 DJH      -0.202300
     31 C32          6.7140    -5.9240     5.5840 ca         1 DJH      -0.125000
     32 C33          5.8520    -6.8380     6.1530 ca         1 DJH      -0.062000
     33 C34          4.5020    -6.5540     6.2570 ca         1 DJH      -0.124000
     34 C35          4.0140    -5.3450     5.7910 ca         1 DJH      -0.022300
     35 C36          2.5450    -5.0310     5.9040 c3         1 DJH       0.044200
     36 H1           2.8380    -0.0020    -1.7700 h4         1 DJH       0.015800
     37 H2           4.5600    -1.4290     2.3960 h1         1 DJH       0.052200
     38 H3           2.8540    -1.7480     2.0290 h1         1 DJH       0.052200
     39 H4           4.9960    -0.3120     4.8370 h1         1 DJH       0.052200
     40 H5           3.5250    -0.0280     5.7870 h1         1 DJH       0.052200
     41 H6          -0.5560     0.0030     3.3250 ha         1 DJH       0.118000
     42 H7          -1.7760     0.0020     1.2140 ha         1 DJH       0.107000
     43 H8          -1.3410     0.0090    -1.6320 hn         1 DJH       0.153700
     44 H9           3.1770     0.1500     1.2190 ha         1 DJH       0.116000
     45 H10          4.1340    -3.8120     2.6990 hc         1 DJH       0.032450
     46 H11          2.7560    -3.4640     3.7580 hc         1 DJH       0.032450
     47 H12          3.1600    -2.4260     6.0240 hc         1 DJH       0.032450
     48 H13          4.8180    -2.0580     6.5300 hc         1 DJH       0.032450
     49 H14          8.6880    -2.5850     4.2840 h1         1 DJH       0.050200
     50 H15          8.8470    -4.1990     4.9910 h1         1 DJH       0.050200
     51 H16         10.6240    -3.9060     2.9690 hn         1 DJH       0.185500
     52 H17          9.6140    -4.2240     0.3390 h1         1 DJH       0.062700
     53 H18          9.7750    -5.8370     1.0470 h1         1 DJH       0.062700
     54 H19          7.7700    -6.1530     5.5050 ha         1 DJH       0.103000
     55 H20          6.2330    -7.7840     6.5180 ha         1 DJH       0.104000
     56 H21          3.8290    -7.2750     6.7050 ha         1 DJH       0.112000
     57 H22          2.4120    -4.1300     6.4900 hc         1 DJH       0.015700
     58 H23          2.1300    -4.8830     4.9150 hc         1 DJH       0.015700
     59 H24          2.0360    -5.8560     6.3890 hc         1 DJH       0.015700
     60 C10          2.1160     0.0000     3.6930 c          1 DJH       0.613700
@<TRIPOS>BOND
     1     1     3 ar  
     2     1    13 ar  
     3     1    14 1   
     4     2     3 1   
     5     2    15 2   
     6     2    36 1   
     7     3    16 ar  
     8     4     5 1   
     9     4     7 1   
    10     4    60 1   
    11     5    18 1   
    12     5    37 1   
    13     5    38 1   
    14     6     8 1   
    15     6    18 1   
    16     6    19 1   
    17     6    20 1   
    18     7    19 1   
    19     7    39 1   
    20     7    40 1   
    21     8    22 1   
    22     8    23 2   
    23     9    24 1   
    24     9    25 2   
    25     9    26 1   
    26    10    27 1   
    27    10    28 1   
    28    10    29 1   
    29    10    30 1   
    30    11    12 ar  
    31    11    16 ar  
    32    11    60 1   
    33    12    13 ar  
    34    12    41 1   
    35    13    42 1   
    36    14    15 1   
    37    14    43 1   
    38    16    44 1   
    39    17    60 2   
    40    18    45 1   
    41    18    46 1   
    42    19    47 1   
    43    19    48 1   
    44    20    21 ar  
    45    20    34 ar  
    46    21    22 1   
    47    21    31 ar  
    48    22    24 1   
    49    24    49 1   
    50    24    50 1   
    51    26    27 1   
    52    26    51 1   
    53    27    52 1   
    54    27    53 1   
    55    31    32 ar  
    56    31    54 1   
    57    32    33 ar  
    58    32    55 1   
    59    33    34 ar  
    60    33    56 1   
    61    34    35 1   
    62    35    57 1   
    63    35    58 1   
    64    35    59 1   
@<TRIPOS>SUBSTRUCTURE
     1 DJH         1 TEMP              0 ****  ****    0 ROOT
