@<TRIPOS>MOLECULE
molecule
   43    44     1     0     0
SMALL
bcc


@<TRIPOS>ATOM
      1 C4           0.0000     0.0000     0.0000 cc         1 DJJ       0.178500
      2 N4          -0.6920     0.0000    -1.1890 nz         1 DJJ      -0.626600
      3 C5           1.4100     0.0000     0.0000 cc         1 DJJ      -0.297600
      4 C6           2.0660     0.0000     1.1850 cd         1 DJJ      -0.077400
      5 N3          -0.6550     0.0070     1.1530 nd         1 DJJ      -0.848100
      6 C2           0.0030     0.0070     2.3100 c          1 DJJ       0.854900
      7 O2          -0.6220     0.0140     3.3570 o          1 DJJ      -0.698500
      8 N1           1.3490     0.0020     2.3430 n          1 DJJ      -0.385000
      9 C1'          2.0460     0.0020     3.6320 c3         1 DJJ       0.318500
     10 C2'          1.7070     1.2820     4.4260 c3         1 DJJ      -0.146400
     11 C3'          1.6230     0.8030     5.8920 c3         1 DJJ       0.107100
     12 O3'          2.6060     1.4640     6.6920 oh         1 DJJ      -0.616800
     13 O4'          1.5720    -1.0820     4.4590 os         1 DJJ      -0.353600
     14 C4'          1.9220    -0.7100     5.8110 c3         1 DJJ       0.132100
     15 C5'          1.0610    -1.4780     6.8150 c3         1 DJJ       0.240400
     16 O5'          1.4330    -2.8570     6.8060 os         1 DJJ      -0.602200
     17 PA           0.7320    -3.9620     7.7430 p5         1 DJJ       1.436800
     18 O1A         -0.8130    -4.1230     7.3180 o          1 DJJ      -0.837000
     19 O2A          0.8120    -3.5320     9.1570 o          1 DJJ      -0.837000
     20 O3A          1.4860    -5.3740     7.5660 os         1 DJJ      -0.713800
     21 PB           1.4940    -6.7500     8.4020 p5         1 DJJ       1.247600
     22 O2B          2.0070    -6.4650     9.9010 o          1 DJJ      -0.658500
     23 O1B          0.1230    -7.3070     8.4470 o          1 DJJ      -0.658500
     24 C3B          2.6080    -7.9450     7.5950 c3         1 DJJ      -0.128700
     25 Cl1          4.2780    -7.2670     7.5390 cl         1 DJJ      -0.187400
     26 PG           2.6170    -9.5040     8.5410 p5         1 DJJ       0.978700
     27 O1G          1.1250   -10.1090     8.5900 o          1 DJJ      -0.629500
     28 O2G          3.6010   -10.5590     7.8280 o          1 DJJ      -0.629500
     29 O3G          3.0890    -9.2410     9.9190 o          1 DJJ      -0.629500
     30 H1          -0.4550     0.8190    -1.7130 hn         1 DJJ       0.362467
     31 H2          -0.4490    -0.8150    -1.7170 hn         1 DJJ       0.362467
     32 H3           1.9600    -0.0010    -0.9330 ha         1 DJJ       0.068000
     33 H4           3.1490    -0.0020     1.2110 h4         1 DJJ       0.114000
     34 H5           3.1170    -0.0760     3.4880 h2         1 DJJ       0.030700
     35 H6           0.7530     1.6850     4.1050 hc         1 DJJ       0.053200
     36 H7           2.4940     2.0180     4.3130 hc         1 DJJ       0.053200
     37 H8           0.6290     0.9710     6.2880 h1         1 DJJ       0.056700
     38 H9           2.1920     2.1350     7.2090 ho         1 DJJ       0.382000
     39 H10          2.9740    -0.8950     5.9900 h1         1 DJJ       0.053700
     40 H11          1.2120    -1.0690     7.8070 h1         1 DJJ       0.037700
     41 H12          0.0170    -1.3840     6.5410 h1         1 DJJ       0.037700
     42 H15          2.2630    -8.1370     6.5860 h1         1 DJJ       0.094700
     43 H43         -1.6750    -0.0040    -1.0030 hn         1 DJJ       0.362467
@<TRIPOS>BOND
     1     7     6 2
     2     6     5 1
     3     6     8 1
     4     5     1 2
     5    10     9 1
     6    10    11 1
     7     9     8 1
     8     9    13 1
     9     8     4 1
    10    12    11 1
    11     1     2 1
    12     1     3 1
    13    11    14 1
    14    13    14 1
    15     4     3 2
    16    14    15 1
    17    22    21 1
    18    15    16 1
    19    16    17 1
    20    21    20 1
    21    21    23 1
    22    21    24 1
    23    20    17 1
    24    24    25 1
    25    24    26 1
    26    17    19 1
    27    17    18 1
    28    29    26 1
    29    26    27 1
    30    26    28 1
    31     2    30 1
    32     2    31 1
    33     3    32 1
    34     4    33 1
    35     9    34 1
    36    10    35 1
    37    10    36 1
    38    11    37 1
    39    12    38 1
    40    14    39 1
    41    15    40 1
    42    15    41 1
    43    24    42 1
    44    43     2 1
@<TRIPOS>SUBSTRUCTURE
     1 DJJ         1 TEMP              0 ****  ****    0 ROOT
