@<TRIPOS>MOLECULE
molecule
   36    38     1     0     0
SMALL
bcc


@<TRIPOS>ATOM
      1 C51          0.0000     0.0000     0.0000 c2         1 DJK      -0.143000
      2 C11          1.4870     0.0000     0.0000 ce         1 DJK      -0.271200
      3 C10          1.9840     0.0000     1.4360 c          1 DJK       0.677300
      4 O61          1.6810    -0.9120     2.2020 o          1 DJK      -0.564100
      5 N11          2.7760     1.1190     1.7360 ns         1 DJK      -0.483100
      6 C9           3.3920     1.4390     2.9460 ca         1 DJK       0.075600
      7 C8           4.1450     2.6030     3.0620 ca         1 DJK      -0.168000
      8 C13          3.2560     0.5960     4.0430 ca         1 DJK      -0.128000
      9 C17          3.8740     0.9190     5.2550 ca         1 DJK      -0.157300
     10 C18          4.6350     2.0780     5.4000 ca         1 DJK       0.426600
     11 C7           4.7630     2.9200     4.2840 ca         1 DJK      -0.260600
     12 C6           5.5300     4.0680     4.4670 ca         1 DJK       0.708200
     13 N3           6.1310     4.3920     5.6270 nb         1 DJK      -0.730000
     14 C19          5.9380     3.5130     6.6230 ca         1 DJK       0.658900
     15 N2           5.2210     2.3720     6.5740 nb         1 DJK      -0.711000
     16 N1           5.7050     4.9670     3.3860 nu         1 DJK      -0.789300
     17 C5           5.9050     6.3560     3.3310 ca         1 DJK       0.187600
     18 C4           5.3670     7.1850     4.3200 ca         1 DJK      -0.124000
     19 C20          6.6440     6.9190     2.2870 ca         1 DJK      -0.166000
     20 C21          6.8430     8.2990     2.2310 ca         1 DJK      -0.100000
     21 C22          6.3040     9.1210     3.2210 ca         1 DJK      -0.131000
     22 C3           5.5660     8.5630     4.2650 ca         1 DJK       0.005100
     23 Br           4.8370     9.6780     5.6060 br         1 DJK      -0.089100
     24 H511        -0.5420    -0.0000    -0.9380 ha         1 DJK       0.131000
     25 H512        -0.5420     0.0000     0.9380 ha         1 DJK       0.131000
     26 H111         2.0990    -0.0000    -0.8940 ha         1 DJK       0.169000
     27 HN11         2.9160     1.7690     0.9880 hn         1 DJK       0.319500
     28 H8           4.2420     3.2720     2.2160 ha         1 DJK       0.129000
     29 H13          2.6740    -0.3130     3.9580 ha         1 DJK       0.180000
     30 H17          3.7590     0.2530     6.1010 ha         1 DJK       0.157000
     31 H19          6.4090     3.7460     7.5700 h5         1 DJK       0.053100
     32 HN1          5.6820     4.5270     2.4870 hn         1 DJK       0.429800
     33 H4           4.7940     6.7540     5.1330 ha         1 DJK       0.158000
     34 H20          7.0630     6.2820     1.5170 ha         1 DJK       0.133000
     35 H21          7.4150     8.7320     1.4200 ha         1 DJK       0.139000
     36 H22          6.4580    10.1920     3.1780 ha         1 DJK       0.145000
@<TRIPOS>BOND
     1     1     2 2
     2     1    24 1
     3     1    25 1
     4     2     3 1
     5     2    26 1
     6     3     4 2
     7     3     5 1
     8     5     6 1
     9     5    27 1
    10     6     7 ar
    11     6     8 ar
    12     7    11 ar
    13     7    28 1
    14     8     9 ar
    15     8    29 1
    16     9    10 ar
    17     9    30 1
    18    10    15 ar
    19    10    11 ar
    20    11    12 ar
    21    12    13 ar
    22    12    16 1
    23    13    14 ar
    24    14    15 ar
    25    14    31 1
    26    16    17 1
    27    16    32 1
    28    17    18 ar
    29    17    19 ar
    30    18    22 ar
    31    18    33 1
    32    19    20 ar
    33    19    34 1
    34    20    21 ar
    35    20    35 1
    36    21    22 ar
    37    21    36 1
    38    22    23 1
@<TRIPOS>SUBSTRUCTURE
     1 DJK         1 TEMP              0 ****  ****    0 ROOT
