@<TRIPOS>MOLECULE
DJL
   35    36     1     0     0
SMALL
bcc


@<TRIPOS>ATOM
      1 C1           0.0000     0.0000     0.0000 ca         1 DJL      -0.051500
      2 C2           1.3820     0.0000     0.0000 ca         1 DJL      -0.116000
      3 C3           2.0760     0.0000     1.1950 ca         1 DJL      -0.051500
      4 C4           1.3910     0.0010     2.3940 ca         1 DJL      -0.160500
      5 C5           0.0030     0.0020     2.3970 ca         1 DJL       0.116100
      6 C6          -0.6920     0.0010     1.1970 ca         1 DJL      -0.160500
      7 O7          -0.6750     0.0020     3.5750 os         1 DJL      -0.204200
      8 C8          -2.0340     0.0020     3.5290 ca         1 DJL       0.125100
      9 C9          -2.7300    -1.1990     3.5060 ca         1 DJL      -0.035600
     10 C10         -4.1110    -1.1940     3.4610 ca         1 DJL      -0.063000
     11 C11         -4.8010     0.0030     3.4380 ca         1 DJL      -0.105000
     12 C12         -4.1120     1.2020     3.4600 ca         1 DJL      -0.209300
     13 C13         -2.7290     1.2050     3.5120 ca         1 DJL       0.145900
     14 Cl1         -1.8650    -2.7030     3.5340 cl         1 DJL       0.095600
     15 N20         -6.2180     2.2990     3.9770 nz         1 DJL       0.055400
     16 C23         -4.9660     3.0100     1.9960 c3         1 DJL      -0.042400
     17 F23         -2.0560     2.3760     3.5390 f          1 DJL      -0.100900
     18 C30         -4.8670     2.5060     3.4360 c3         1 DJL       0.015800
     19 H30         -4.3440     3.2380     4.0400 hx         1 DJL       0.101700
     20 HN20        -6.7840     1.8370     3.2930 hn         1 DJL       0.230800
     21 HN2A        -6.1640     1.7350     4.8020 hn         1 DJL       0.230800
     22 HN2B        -6.6250     3.1850     4.2040 hn         1 DJL       0.230800
     23 H22         -6.6980     4.2820     2.0530 hc         1 DJL       0.020033
     24 H22A        -5.3720     4.9030     1.0610 hc         1 DJL       0.020033
     25 H22B        -5.2640     4.9700     2.8250 hc         1 DJL       0.020033
     26 H23         -5.5650     2.3200     1.4120 hc         1 DJL       0.056700
     27 H23A        -3.9740     3.0780     1.5670 hc         1 DJL       0.056700
     28 H11         -5.8840     0.0020     3.4000 ha         1 DJL       0.089000
     29 H10         -4.6540    -2.1320     3.4430 ha         1 DJL       0.137000
     30 H4           1.9350     0.0010     3.3300 ha         1 DJL       0.113500
     31 H3           3.1600    -0.0000     1.1920 ha         1 DJL       0.110500
     32 H2           1.9230    -0.0010    -0.9390 ha         1 DJL       0.115000
     33 H1          -0.5410    -0.0000    -0.9380 ha         1 DJL       0.110500
     34 H6          -1.7750     0.0010     1.1970 ha         1 DJL       0.113500
     35 C22         -5.6230     4.3920     1.9830 c3         1 DJL      -0.011100
@<TRIPOS>BOND
     1     1     2 ar  
     2     1     6 ar  
     3     1    33 1   
     4     2     3 ar  
     5     2    32 1   
     6     3     4 ar  
     7     3    31 1   
     8     4     5 ar  
     9     4    30 1   
    10     5     6 ar  
    11     5     7 1   
    12     6    34 1   
    13     7     8 1   
    14     8     9 ar  
    15     8    13 ar  
    16     9    10 ar  
    17     9    14 1   
    18    10    11 ar  
    19    10    29 1   
    20    11    12 ar  
    21    11    28 1   
    22    12    13 ar  
    23    12    18 1   
    24    13    17 1   
    25    15    18 1   
    26    15    20 1   
    27    15    21 1   
    28    15    22 1   
    29    16    18 1   
    30    16    26 1   
    31    16    27 1   
    32    16    35 1   
    33    18    19 1   
    34    23    35 1   
    35    24    35 1   
    36    25    35 1   
@<TRIPOS>SUBSTRUCTURE
     1 DJL         1 TEMP              0 ****  ****    0 ROOT
