@<TRIPOS>MOLECULE
DJN
   30    30     1     0     0
SMALL
bcc


@<TRIPOS>ATOM
      1 O7           0.0000     0.0000     0.0000 o          1 DJN      -0.640100
      2 C7           1.2130     0.0000     0.0000 c          1 DJN       0.571100
      3 C8           1.9660     0.0000     1.3050 c3         1 DJN      -0.068100
      4 N2           1.8870    -0.0050    -1.1670 ns         1 DJN      -0.188900
      5 C2           1.1540    -0.0100    -2.4360 c3         1 DJN       0.010700
      6 C3           2.0330    -0.6200    -3.5310 c3         1 DJN       0.158100
      7 O3           2.3310    -1.9790    -3.2030 oh         1 DJN      -0.570800
      8 C4           1.2840    -0.5670    -4.8660 c3         1 DJN       0.179100
      9 O4           0.0930    -1.3530    -4.7750 oh         1 DJN      -0.549800
     10 C5           0.9160     0.8840    -5.1800 c3         1 DJN       0.099500
     11 C6           0.1480     0.9400    -6.5040 c3         1 DJN       0.224400
     12 O6          -0.0940     2.3030    -6.8570 oh         1 DJN      -0.600800
     13 N5           0.0740     1.4230    -4.1040 n7         1 DJN      -0.547200
     14 C1           0.7900     1.4250    -2.8220 c3         1 DJN       0.129800
     15 H1           1.2630     0.0240     2.1280 hc         1 DJN       0.021367
     16 H2           2.5710    -0.8960     1.3720 hc         1 DJN       0.021367
     17 H3           2.6070     0.8720     1.3520 hc         1 DJN       0.021367
     18 H4           2.8870     0.0380    -1.1670 hn         1 DJN       0.165500
     19 H5           0.2490    -0.5950    -2.3340 h1         1 DJN       0.097700
     20 H6           2.9520    -0.0530    -3.6120 h1         1 DJN      -0.001300
     21 H7           3.2270    -2.1680    -3.4310 ho         1 DJN       0.383000
     22 H8           1.9210    -0.9560    -5.6510 h1         1 DJN      -0.001300
     23 H9           0.1970    -2.1410    -5.2820 ho         1 DJN       0.384000
     24 H10          1.8200     1.4750    -5.2570 h1         1 DJN       0.012700
     25 H11         -0.7970     0.4220    -6.3960 h1         1 DJN      -0.001300
     26 H12          0.7340     0.4650    -7.2810 h1         1 DJN      -0.001300
     27 H13         -0.4130     2.3470    -7.7430 ho         1 DJN       0.395000
     28 H14         -0.2040     2.3560    -4.3330 hn         1 DJN       0.268800
     29 H16          0.1550     1.8530    -2.0560 h1         1 DJN       0.013700
     30 H17          1.6960     2.0130    -2.9170 h1         1 DJN       0.013700
@<TRIPOS>BOND
     1     1     2 2   
     2     2     3 1   
     3     2     4 1   
     4     3    15 1   
     5     3    16 1   
     6     3    17 1   
     7     4     5 1   
     8     4    18 1   
     9     5     6 1   
    10     5    14 1   
    11     5    19 1   
    12     6     7 1   
    13     6     8 1   
    14     6    20 1   
    15     7    21 1   
    16     8     9 1   
    17     8    10 1   
    18     8    22 1   
    19     9    23 1   
    20    10    11 1   
    21    10    13 1   
    22    10    24 1   
    23    11    12 1   
    24    11    25 1   
    25    11    26 1   
    26    12    27 1   
    27    13    14 1   
    28    13    28 1   
    29    14    29 1   
    30    14    30 1   
@<TRIPOS>SUBSTRUCTURE
     1 DJN         1 TEMP              0 ****  ****    0 ROOT
