@<TRIPOS>MOLECULE
molecule
   11    11     1     0     0
SMALL
bcc


@<TRIPOS>ATOM
      1 C3           0.0000     0.0000     0.0000 ca         1 DJP       0.445700
      2 C2           2.0010     0.0000     1.1370 ca         1 DJP       0.876300
      3 C1           0.0670     0.0070     2.3830 ca         1 DJP       0.445700
      4 O            3.3550     0.0010     1.0990 oh         1 DJP      -0.593300
      5 N            1.3880     0.0010     2.3090 nb         1 DJP      -0.728000
      6 N1           1.3240     0.0000     0.0000 nb         1 DJP      -0.728000
      7 C           -0.6750     0.0070     1.2110 ca         1 DJP      -0.132700
      8 F           -2.0260     0.0130     1.2490 f          1 DJP      -0.124900
      9 H2          -0.5490    -0.0000    -0.9340 h4         1 DJP       0.047600
     10 H           -0.4290     0.0110     3.3460 h4         1 DJP       0.047600
     11 H3           3.6700    -0.8880     1.0910 ho         1 DJP       0.444000
@<TRIPOS>BOND
     1     4     2 1
     2     5     2 ar
     3     5     3 ar
     4     2     6 ar
     5     3     7 ar
     6     6     1 ar
     7     7     1 ar
     8     7     8 1
     9     1     9 1
    10     3    10 1
    11     4    11 1
@<TRIPOS>SUBSTRUCTURE
     1 DJP         1 TEMP              0 ****  ****    0 ROOT
