@<TRIPOS>MOLECULE
molecule
   67    69     1     0     0
SMALL
bcc


@<TRIPOS>ATOM
      1 C6           0.0000     0.0000     0.0000 ca         1 DJS       0.249200
      2 N1           4.1820     0.0010     2.4530 ns         1 DJS      -0.570900
      3 C5           1.3800     0.0000     0.0000 ca         1 DJS      -0.175300
      4 C4           2.0630     0.0000     1.2230 ca         1 DJS      -0.081600
      5 C2           3.5430     0.0000     1.2660 c          1 DJS       0.666700
      6 O3           4.1830     0.0000     0.2330 o          1 DJS      -0.589100
      7 N7          -0.6790     0.0060     1.1300 nb         1 DJS      -0.669000
      8 C8          -0.0770     0.0070     2.3090 ca         1 DJS       0.682200
      9 C9           1.3110     0.0010     2.3980 ca         1 DJS      -0.257300
     10 N10         -0.8410     0.0130     3.4710 nu         1 DJS      -0.913900
     11 C11         -0.1830     0.0140     4.7800 c3         1 DJS       0.239500
     12 C13          0.1660     1.4510     5.1750 c3         1 DJS      -0.120100
     13 C14         -1.1240    -0.5880     5.8250 c3         1 DJS      -0.094400
     14 C15         -1.3730    -2.0620     5.4970 c3         1 DJS      -0.094100
     15 S16         -0.8670     0.0010    -1.5330 sy         1 DJS       1.123900
     16 O17         -2.1160     0.6060    -1.2300 o          1 DJS      -0.600300
     17 O18          0.0380     0.6050    -2.4480 o          1 DJS      -0.600300
     18 C19         -1.0910    -1.7560    -1.9280 c3         1 DJS      -0.225300
     19 C20          5.6460     0.0000     2.4970 c3         1 DJS       0.124700
     20 C22          6.1590    -1.4390     2.4250 c3         1 DJS       0.142100
     21 O24          5.7520    -2.1500     3.5960 oh         1 DJS      -0.615800
     22 C25          7.6860    -1.4340     2.3370 c3         1 DJS       0.135500
     23 C27          8.2180    -2.8670     2.0870 c3         1 DJS      -0.084400
     24 C28          9.5900    -2.5800     1.4220 c3         1 DJS      -0.105400
     25 C29          9.3110    -1.3180     0.5780 c3         1 DJS       0.150800
     26 N30          8.1310    -0.6550     1.1620 n7         1 DJS      -0.802200
     27 C31          6.1170     0.6450     3.8020 c3         1 DJS      -0.048100
     28 C32          5.7190     2.0970     3.8190 ca         1 DJS      -0.083300
     29 C33          4.4970     2.4720     4.3450 ca         1 DJS      -0.124500
     30 C34          4.1300     3.8050     4.3590 ca         1 DJS      -0.121500
     31 C35          4.9860     4.7630     3.8470 ca         1 DJS      -0.127000
     32 C36          6.2080     4.3880     3.3210 ca         1 DJS      -0.121500
     33 C37          6.5760     3.0560     3.3120 ca         1 DJS      -0.124500
     34 H1           3.6560     0.0230     3.3040 hn         1 DJS       0.316500
     35 H2           1.9290    -0.0050    -0.9340 ha         1 DJS       0.182000
     36 H3           1.8000     0.0010     3.3650 ha         1 DJS       0.139000
     37 H4          -1.8400    -0.0100     3.4130 hn         1 DJS       0.456800
     38 H5           0.7240    -0.5770     4.7280 h1         1 DJS       0.052700
     39 H6          -0.1550     2.1280     4.3930 hc         1 DJS       0.045700
     40 H7           1.2370     1.5380     5.3120 hc         1 DJS       0.045700
     41 H8          -0.3380     1.7030     6.1010 hc         1 DJS       0.045700
     42 H9          -2.0650    -0.0520     5.8150 hc         1 DJS       0.053200
     43 H10         -0.6730    -0.5080     6.8060 hc         1 DJS       0.053200
     44 H11         -2.1320    -2.1380     4.7280 hc         1 DJS       0.038033
     45 H12         -0.4540    -2.5140     5.1430 hc         1 DJS       0.038033
     46 H13         -1.7090    -2.5790     6.3880 hc         1 DJS       0.038033
     47 H14         -0.1210    -2.2260    -2.0430 h1         1 DJS       0.099700
     48 H15         -1.6500    -1.8510    -2.8500 h1         1 DJS       0.099700
     49 H16         -1.6330    -2.2400    -1.1250 h1         1 DJS       0.099700
     50 H17          6.0330     0.5640     1.6570 h1         1 DJS       0.106700
     51 H18          5.7490    -1.9250     1.5470 h1         1 DJS       0.065700
     52 H19          5.4640    -3.0150     3.3550 ho         1 DJS       0.404000
     53 H20          8.1200    -1.0270     3.2430 h1         1 DJS       0.042700
     54 H21          7.5670    -3.4070     1.4100 hc         1 DJS       0.054700
     55 H22          8.3460    -3.4000     3.0210 hc         1 DJS       0.054700
     56 H23         10.3430    -2.3770     2.1740 hc         1 DJS       0.049700
     57 H24          9.8860    -3.4060     0.7870 hc         1 DJS       0.049700
     58 H25          9.1040    -1.6000    -0.4470 h1         1 DJS       0.046700
     59 H26         10.1650    -0.6530     0.6180 h1         1 DJS       0.046700
     60 H27          8.3780     0.2720     1.4500 hn         1 DJS       0.348800
     61 H29          5.6610     0.1350     4.6420 hc         1 DJS       0.062200
     62 H30          7.1950     0.5660     3.8750 hc         1 DJS       0.062200
     63 H31          3.8260     1.7220     4.7460 ha         1 DJS       0.122500
     64 H32          3.1720     4.0990     4.7710 ha         1 DJS       0.130000
     65 H33          4.6970     5.8070     3.8560 ha         1 DJS       0.131000
     66 H34          6.8790     5.1390     2.9220 ha         1 DJS       0.130000
     67 H35          7.5340     2.7620     2.9000 ha         1 DJS       0.122500
@<TRIPOS>BOND
     1    31    32 ar
     2    31    30 ar
     3    32    33 ar
     4    30    29 ar
     5    33    28 ar
     6    29    28 ar
     7    12    11 1
     8    28    27 1
     9    11    13 1
    10    11    10 1
    11    27    19 1
    12    13    14 1
    13    10     8 1
    14     9     8 ar
    15     9     4 ar
    16    19     2 1
    17    19    20 1
    18     6     5 2
    19     8     7 ar
    20     5     2 1
    21     5     4 1
    22     4     3 ar
    23    21    20 1
    24    20    22 1
    25     7     1 ar
    26     3     1 ar
    27     1    15 1
    28    23    22 1
    29    23    24 1
    30    17    15 2
    31    22    26 1
    32    15    18 1
    33    15    16 2
    34    24    25 1
    35    26    25 1
    36     2    34 1
    37     3    35 1
    38     9    36 1
    39    10    37 1
    40    11    38 1
    41    12    39 1
    42    12    40 1
    43    12    41 1
    44    13    42 1
    45    13    43 1
    46    14    44 1
    47    14    45 1
    48    14    46 1
    49    18    47 1
    50    18    48 1
    51    18    49 1
    52    19    50 1
    53    20    51 1
    54    21    52 1
    55    22    53 1
    56    23    54 1
    57    23    55 1
    58    24    56 1
    59    24    57 1
    60    25    58 1
    61    25    59 1
    62    26    60 1
    63    27    61 1
    64    27    62 1
    65    29    63 1
    66    30    64 1
    67    31    65 1
    68    32    66 1
    69    33    67 1
@<TRIPOS>SUBSTRUCTURE
     1 DJS         1 TEMP              0 ****  ****    0 ROOT
