@<TRIPOS>MOLECULE
DJS
   67    69     1     0     0
SMALL
bcc


@<TRIPOS>ATOM
      1 C6           0.0000     0.0000     0.0000 ca         1 DJS       0.336200
      2 N1           4.1820     0.0010     2.4530 ns         1 DJS      -0.183900
      3 C5           1.3800     0.0000     0.0000 ca         1 DJS      -0.136300
      4 C4           2.0630     0.0000     1.2230 ca         1 DJS      -0.094600
      5 C2           3.5430     0.0000     1.2660 c          1 DJS       0.587700
      6 O3           4.1830     0.0000     0.2330 o          1 DJS      -0.633100
      7 N7          -0.6790     0.0060     1.1300 nb         1 DJS      -0.540000
      8 C8          -0.0770     0.0070     2.3090 ca         1 DJS       0.492200
      9 C9           1.3110     0.0010     2.3980 ca         1 DJS      -0.258300
     10 N10         -0.8410     0.0130     3.4710 nu         1 DJS      -0.512900
     11 C11         -0.1830     0.0140     4.7800 c3         1 DJS       0.129500
     12 C13          0.1660     1.4510     5.1750 c3         1 DJS      -0.027100
     13 C14         -1.1240    -0.5880     5.8250 c3         1 DJS      -0.035400
     14 C15         -1.3730    -2.0620     5.4970 c3         1 DJS       0.000900
     15 S16         -0.8670     0.0010    -1.5330 sy         1 DJS       0.801900
     16 O17         -2.1160     0.6060    -1.2300 o          1 DJS      -0.576300
     17 O18          0.0380     0.6050    -2.4480 o          1 DJS      -0.576300
     18 C19         -1.0910    -1.7560    -1.9280 c3         1 DJS       0.028700
     19 C20          5.6460     0.0000     2.4970 c3         1 DJS       0.009700
     20 C22          6.1590    -1.4390     2.4250 c3         1 DJS       0.179100
     21 O24          5.7520    -2.1500     3.5960 oh         1 DJS      -0.595800
     22 C25          7.6860    -1.4340     2.3370 c3         1 DJS       0.089500
     23 C27          8.2180    -2.8670     2.0870 c3         1 DJS      -0.025400
     24 C28          9.5900    -2.5800     1.4220 c3         1 DJS      -0.042400
     25 C29          9.3110    -1.3180     0.5780 c3         1 DJS       0.147800
     26 N30          8.1310    -0.6550     1.1620 n7         1 DJS      -0.572200
     27 C31          6.1170     0.6450     3.8020 c3         1 DJS       0.012900
     28 C32          5.7190     2.0970     3.8190 ca         1 DJS      -0.093300
     29 C33          4.4970     2.4720     4.3450 ca         1 DJS      -0.100000
     30 C34          4.1300     3.8050     4.3590 ca         1 DJS      -0.093000
     31 C35          4.9860     4.7630     3.8470 ca         1 DJS      -0.099000
     32 C36          6.2080     4.3880     3.3210 ca         1 DJS      -0.093000
     33 C37          6.5760     3.0560     3.3120 ca         1 DJS      -0.100000
     34 H1           3.6560     0.0230     3.3040 hn         1 DJS       0.182500
     35 H2           1.9290    -0.0050    -0.9340 ha         1 DJS       0.158000
     36 H3           1.8000     0.0010     3.3650 ha         1 DJS       0.127000
     37 H4          -1.8400    -0.0100     3.4130 hn         1 DJS       0.307800
     38 H5           0.7240    -0.5770     4.7280 h1         1 DJS       0.034700
     39 H6          -0.1550     2.1280     4.3930 hc         1 DJS       0.013700
     40 H7           1.2370     1.5380     5.3120 hc         1 DJS       0.013700
     41 H8          -0.3380     1.7030     6.1010 hc         1 DJS       0.013700
     42 H9          -2.0650    -0.0520     5.8150 hc         1 DJS       0.024200
     43 H10         -0.6730    -0.5080     6.8060 hc         1 DJS       0.024200
     44 H11         -2.1320    -2.1380     4.7280 hc         1 DJS       0.005033
     45 H12         -0.4540    -2.5140     5.1430 hc         1 DJS       0.005033
     46 H13         -1.7090    -2.5790     6.3880 hc         1 DJS       0.005033
     47 H14         -0.1210    -2.2260    -2.0430 h1         1 DJS       0.059700
     48 H15         -1.6500    -1.8510    -2.8500 h1         1 DJS       0.059700
     49 H16         -1.6330    -2.2400    -1.1250 h1         1 DJS       0.059700
     50 H17          6.0330     0.5640     1.6570 h1         1 DJS       0.082700
     51 H18          5.7490    -1.9250     1.5470 h1         1 DJS       0.032700
     52 H19          5.4640    -3.0150     3.3550 ho         1 DJS       0.393000
     53 H20          8.1200    -1.0270     3.2430 h1         1 DJS       0.026700
     54 H21          7.5670    -3.4070     1.4100 hc         1 DJS       0.023700
     55 H22          8.3460    -3.4000     3.0210 hc         1 DJS       0.023700
     56 H23         10.3430    -2.3770     2.1740 hc         1 DJS       0.019200
     57 H24          9.8860    -3.4060     0.7870 hc         1 DJS       0.019200
     58 H25          9.1040    -1.6000    -0.4470 h1         1 DJS       0.014200
     59 H26         10.1650    -0.6530     0.6180 h1         1 DJS       0.014200
     60 H27          8.3780     0.2720     1.4500 hn         1 DJS       0.250800
     61 H29          5.6610     0.1350     4.6420 hc         1 DJS       0.034700
     62 H30          7.1950     0.5660     3.8750 hc         1 DJS       0.034700
     63 H31          3.8260     1.7220     4.7460 ha         1 DJS       0.101000
     64 H32          3.1720     4.0990     4.7710 ha         1 DJS       0.103000
     65 H33          4.6970     5.8070     3.8560 ha         1 DJS       0.104000
     66 H34          6.8790     5.1390     2.9220 ha         1 DJS       0.103000
     67 H35          7.5340     2.7620     2.9000 ha         1 DJS       0.101000
@<TRIPOS>BOND
     1     1     3 ar  
     2     1     7 ar  
     3     1    15 1   
     4     2     5 1   
     5     2    19 1   
     6     2    34 1   
     7     3     4 ar  
     8     3    35 1   
     9     4     5 1   
    10     4     9 ar  
    11     5     6 2   
    12     7     8 ar  
    13     8     9 ar  
    14     8    10 1   
    15     9    36 1   
    16    10    11 1   
    17    10    37 1   
    18    11    12 1   
    19    11    13 1   
    20    11    38 1   
    21    12    39 1   
    22    12    40 1   
    23    12    41 1   
    24    13    14 1   
    25    13    42 1   
    26    13    43 1   
    27    14    44 1   
    28    14    45 1   
    29    14    46 1   
    30    15    16 2   
    31    15    17 2   
    32    15    18 1   
    33    18    47 1   
    34    18    48 1   
    35    18    49 1   
    36    19    20 1   
    37    19    27 1   
    38    19    50 1   
    39    20    21 1   
    40    20    22 1   
    41    20    51 1   
    42    21    52 1   
    43    22    23 1   
    44    22    26 1   
    45    22    53 1   
    46    23    24 1   
    47    23    54 1   
    48    23    55 1   
    49    24    25 1   
    50    24    56 1   
    51    24    57 1   
    52    25    26 1   
    53    25    58 1   
    54    25    59 1   
    55    26    60 1   
    56    27    28 1   
    57    27    61 1   
    58    27    62 1   
    59    28    29 ar  
    60    28    33 ar  
    61    29    30 ar  
    62    29    63 1   
    63    30    31 ar  
    64    30    64 1   
    65    31    32 ar  
    66    31    65 1   
    67    32    33 ar  
    68    32    66 1   
    69    33    67 1   
@<TRIPOS>SUBSTRUCTURE
     1 DJS         1 TEMP              0 ****  ****    0 ROOT
