@<TRIPOS>MOLECULE
DJT
   60    64     1     0     0
SMALL
bcc


@<TRIPOS>ATOM
      1 C1           0.0000     0.0000     0.0000 c3         1 DJT      -0.032300
      2 C2          -0.5110     1.2200    -0.7230 c          1 DJT       0.553100
      3 Cl2          0.5910     3.1820     4.0460 cl         1 DJT       0.013600
      4 N3          -1.8380     1.4250    -0.8430 ns         1 DJT      -0.147900
      5 C4          -2.3350     2.6100    -1.5460 cx         1 DJT      -0.171900
      6 C5          -1.5000     3.8540    -1.3930 c2         1 DJT       0.455200
      7 O6           0.2700     2.0170    -1.1960 o          1 DJT      -0.611100
      8 C7          -3.0420     2.3920    -2.8860 cx         1 DJT      -0.063400
      9 C8          -3.8520     2.7850    -1.6490 cx         1 DJT      -0.063400
     10 N9          -0.7570     4.0040    -0.3620 n2         1 DJT      -0.620100
     11 N10          1.4700     0.0000     0.0000 n          1 DJT      -0.142800
     12 C11          1.9430     0.0000     1.3960 c3         1 DJT       0.070000
     13 C12          0.7760     0.6130     2.2100 c3         1 DJT      -0.055900
     14 C13         -0.4580     0.0290     1.4730 c3         1 DJT      -0.003400
     15 S14          0.8270     0.0600     3.9360 sy         1 DJT       0.885300
     16 C15         -0.5750     0.8230     4.6830 ca         1 DJT      -0.152500
     17 C16         -0.6710     2.2020     4.7270 ca         1 DJT       0.038400
     18 C17         -1.7720     2.8010     5.3140 ca         1 DJT      -0.123000
     19 C18         -2.7750     2.0210     5.8560 ca         1 DJT      -0.038000
     20 C19         -2.6790     0.6410     5.8120 ca         1 DJT      -0.129000
     21 C20         -1.5830     0.0430     5.2200 ca         1 DJT       0.013000
     22 O22          0.5530    -1.3320     4.0210 o          1 DJT      -0.573300
     23 O23          1.9380     0.6310     4.6120 o          1 DJT      -0.573300
     24 C24          2.2560    -0.0020    -1.0960 c          1 DJT       0.667100
     25 O25          1.7610    -0.1260    -2.1970 o          1 DJT      -0.616100
     26 C26          4.4370     1.2090    -1.8140 cx         1 DJT      -0.053400
     27 C27          3.7490     0.1480    -0.9530 cx         1 DJT      -0.166700
     28 C28          4.2710     1.4350    -0.3090 cx         1 DJT      -0.053400
     29 C29          6.0580    -2.8070    -1.3860 ca         1 DJT      -0.125500
     30 C30          5.8980    -3.4620    -0.1770 ca         1 DJT       0.102900
     31 C31          5.0400    -2.9460     0.7820 ca         1 DJT      -0.125500
     32 C32          4.3450    -1.7790     0.5290 ca         1 DJT      -0.083000
     33 C33          4.5070    -1.1260    -0.6790 ca         1 DJT      -0.054300
     34 C34          5.3620    -1.6390    -1.6350 ca         1 DJT      -0.083000
     35 H1          -0.3670    -0.8990    -0.4800 h1         1 DJT       0.053700
     36 HN3         -2.4840     0.7500    -0.4820 hn         1 DJT       0.173500
     37 H7          -2.9010     3.1760    -3.6210 hc         1 DJT       0.051950
     38 H7A         -3.1400     1.3610    -3.2010 hc         1 DJT       0.051950
     39 H8          -4.2070     3.8090    -1.6280 hc         1 DJT       0.051950
     40 H8A         -4.4450     1.9940    -1.2080 hc         1 DJT       0.051950
     41 H11          2.1390    -1.0130     1.7260 h1         1 DJT       0.044700
     42 H11A         2.8310     0.6130     1.4920 h1         1 DJT       0.044700
     43 H12          0.7870     1.6950     2.1420 h1         1 DJT       0.100700
     44 H13         -1.3160     0.6790     1.5930 hc         1 DJT       0.039700
     45 H13A        -0.6730    -0.9720     1.8250 hc         1 DJT       0.039700
     46 H17         -1.8470     3.8810     5.3480 ha         1 DJT       0.122000
     47 H18         -3.6360     2.4890     6.3170 ha         1 DJT       0.107000
     48 H19         -3.4670     0.0300     6.2350 ha         1 DJT       0.113000
     49 H20         -1.5080    -1.0370     5.1860 ha         1 DJT       0.135000
     50 H26          5.4410     0.9660    -2.1420 hc         1 DJT       0.056700
     51 H26A         3.7820     1.7920    -2.4500 hc         1 DJT       0.056700
     52 H28          3.5140     2.1570    -0.0260 hc         1 DJT       0.056700
     53 H28A         5.1730     1.3300     0.2820 hc         1 DJT       0.056700
     54 H29          6.7290    -3.2090    -2.1350 ha         1 DJT       0.120500
     55 H31          4.9130    -3.4580     1.7280 ha         1 DJT       0.120500
     56 H32          3.6750    -1.3750     1.2780 ha         1 DJT       0.120000
     57 H34          5.4870    -1.1260    -2.5810 ha         1 DJT       0.120000
     58 H5          -1.5270     4.6220    -2.1570 h4         1 DJT      -0.005200
     59 HN9         -0.7310     3.2950     0.3440 hn         1 DJT       0.311400
     60 F35          6.5770    -4.6040     0.0690 f          1 DJT      -0.128900
@<TRIPOS>BOND
     1     1     2 1   
     2     1    11 1   
     3     1    14 1   
     4     1    35 1   
     5     2     4 1   
     6     2     7 2   
     7     3    17 1   
     8     4     5 1   
     9     4    36 1   
    10     5     6 1   
    11     5     8 1   
    12     5     9 1   
    13     6    10 2   
    14     6    58 1   
    15     8     9 1   
    16     8    37 1   
    17     8    38 1   
    18     9    39 1   
    19     9    40 1   
    20    10    59 1   
    21    11    12 1   
    22    11    24 1   
    23    12    13 1   
    24    12    41 1   
    25    12    42 1   
    26    13    14 1   
    27    13    15 1   
    28    13    43 1   
    29    14    44 1   
    30    14    45 1   
    31    15    16 1   
    32    15    22 2   
    33    15    23 2   
    34    16    17 ar  
    35    16    21 ar  
    36    17    18 ar  
    37    18    19 ar  
    38    18    46 1   
    39    19    20 ar  
    40    19    47 1   
    41    20    21 ar  
    42    20    48 1   
    43    21    49 1   
    44    24    25 2   
    45    24    27 1   
    46    26    27 1   
    47    26    28 1   
    48    26    50 1   
    49    26    51 1   
    50    27    28 1   
    51    27    33 1   
    52    28    52 1   
    53    28    53 1   
    54    29    30 ar  
    55    29    34 ar  
    56    29    54 1   
    57    30    31 ar  
    58    30    60 1   
    59    31    32 ar  
    60    31    55 1   
    61    32    33 ar  
    62    32    56 1   
    63    33    34 ar  
    64    34    57 1   
@<TRIPOS>SUBSTRUCTURE
     1 DJT         1 TEMP              0 ****  ****    0 ROOT
