@<TRIPOS>MOLECULE
DJV
   61    63     1     0     0
SMALL
bcc


@<TRIPOS>ATOM
      1 O1           0.0000     0.0000     0.0000 o          1 DJV      -0.659100
      2 C7           1.2120     0.0000     0.0000 c          1 DJV       0.595100
      3 O2          -0.4410     1.2310    -3.7600 oh         1 DJV      -0.586800
      4 C6           2.3770    -4.1240    -3.7980 ca         1 DJV       0.134400
      5 C1           1.5240    -3.1060    -1.3710 ca         1 DJV      -0.151500
      6 N1           1.8170     2.5710    -1.1290 n7         1 DJV      -0.586200
      7 C5           2.3270    -4.2330    -1.4050 ca         1 DJV       0.134400
      8 C4           1.1490    -2.4880    -2.5490 ca         1 DJV      -0.031300
      9 C3           2.7530    -4.7420    -2.6190 ca         1 DJV      -0.176000
     10 C2           1.5730    -2.9960    -3.7630 ca         1 DJV      -0.151500
     11 C8          -1.2340    10.7550    -0.7370 c3         1 DJV      -0.025400
     12 C9          -0.0290    10.5390     0.1800 c3         1 DJV      -0.022900
     13 C10         -1.9910     9.4350    -0.9040 c3         1 DJV      -0.022900
     14 C11          0.9010     9.4920    -0.4370 c3         1 DJV      -0.021400
     15 C12         -1.0620     8.3880    -1.5210 c3         1 DJV      -0.021400
     16 C13          0.2820     3.7650    -2.5340 c3         1 DJV      -0.028400
     17 C14          1.8730     3.9870    -0.7210 c3         1 DJV       0.114800
     18 C15          0.1430     8.1720    -0.6040 c3         1 DJV      -0.056700
     19 C16          1.1880     4.8100    -1.8320 c3         1 DJV       0.161100
     20 C17          1.1530     2.4880    -2.4480 c3         1 DJV       0.101500
     21 C18          1.9660     0.0000     1.3050 c3         1 DJV      -0.066100
     22 C19          0.2740    -1.2610    -2.5110 c3         1 DJV      -0.018100
     23 C21          0.2730     1.2370    -2.5220 c3         1 DJV       0.162100
     24 C22          1.1540    -0.0110    -2.4360 c3         1 DJV       0.026700
     25 N2           1.8860    -0.0050    -1.1680 ns         1 DJV      -0.187900
     26 O3           0.4030     5.8640    -1.2690 os         1 DJV      -0.395600
     27 F1           2.6950    -4.8350    -0.2530 f          1 DJV      -0.124900
     28 F2           2.7970    -4.6160    -4.9850 f          1 DJV      -0.124900
     29 H32         -1.3600     1.3550    -3.5930 ho         1 DJV       0.398000
     30 H1           1.1910    -2.7070    -0.4200 ha         1 DJV       0.131000
     31 H30          2.7470     2.2070    -1.2000 hn         1 DJV       0.246800
     32 H3           3.3820    -5.6240    -2.6460 ha         1 DJV       0.135000
     33 H2           1.2780    -2.5110    -4.6860 ha         1 DJV       0.131000
     34 H4          -1.8920    11.4940    -0.2980 hc         1 DJV       0.012700
     35 H7          -0.3710    10.1910     1.1470 hc         1 DJV       0.013700
     36 H6           0.5070    11.4730     0.2950 hc         1 DJV       0.013700
     37 H9          -2.3300     9.0900     0.0650 hc         1 DJV       0.013700
     38 H8          -2.8430     9.5900    -1.5560 hc         1 DJV       0.013700
     39 H11          1.7520     9.3380     0.2150 hc         1 DJV       0.016950
     40 H10          1.2390     9.8370    -1.4060 hc         1 DJV       0.016950
     41 H13         -0.7210     8.7350    -2.4890 hc         1 DJV       0.016950
     42 H12         -1.5990     7.4540    -1.6350 hc         1 DJV       0.016950
     43 H14         -0.6470     3.6350    -1.9920 hc         1 DJV       0.036200
     44 H15          0.1020     4.0410    -3.5660 hc         1 DJV       0.036200
     45 H17          1.3440     4.1210     0.2140 h1         1 DJV       0.022700
     46 H16          2.9050     4.2990    -0.6160 h1         1 DJV       0.022700
     47 H18         -0.2000     7.8310     0.3650 hc         1 DJV       0.039700
     48 H19          1.9240     5.2010    -2.5250 h1         1 DJV       0.011700
     49 H20          1.8910     2.4840    -3.2400 h1         1 DJV       0.019700
     50 H22          1.8240     0.9510     1.8040 hc         1 DJV       0.022700
     51 H21          3.0210    -0.1540     1.1130 hc         1 DJV       0.022700
     52 H23          1.5940    -0.7980     1.9370 hc         1 DJV       0.022700
     53 H25         -0.3330    -1.2220    -3.4080 hc         1 DJV       0.056700
     54 H24         -0.3690    -1.3030    -1.6410 hc         1 DJV       0.056700
     55 H28         -0.4310     1.2400    -1.6990 h1         1 DJV       0.064700
     56 H29          1.8580    -0.0150    -3.2590 h1         1 DJV       0.036700
     57 H31          2.8860    -0.0440    -1.1670 hn         1 DJV       0.173500
     58 C20          1.0730     7.1250    -1.2210 c3         1 DJV       0.209400
     59 H5          -0.8910    11.0980    -1.7060 hc         1 DJV       0.012700
     60 H26          1.9680     7.0360    -0.6170 h1         1 DJV      -0.008300
     61 H27          1.3440     7.4290    -2.2250 h1         1 DJV      -0.008300
@<TRIPOS>BOND
     1     1     2 2   
     2     2    21 1   
     3     2    25 1   
     4     3    23 1   
     5     3    29 1   
     6     4     9 ar  
     7     4    10 ar  
     8     4    28 1   
     9     5     7 ar  
    10     5     8 ar  
    11     5    30 1   
    12     6    17 1   
    13     6    20 1   
    14     6    31 1   
    15     7     9 ar  
    16     7    27 1   
    17     8    10 ar  
    18     8    22 1   
    19     9    32 1   
    20    10    33 1   
    21    11    12 1   
    22    11    13 1   
    23    11    34 1   
    24    11    59 1   
    25    12    14 1   
    26    12    35 1   
    27    12    36 1   
    28    13    15 1   
    29    13    37 1   
    30    13    38 1   
    31    14    18 1   
    32    14    39 1   
    33    14    40 1   
    34    15    18 1   
    35    15    41 1   
    36    15    42 1   
    37    16    19 1   
    38    16    20 1   
    39    16    43 1   
    40    16    44 1   
    41    17    19 1   
    42    17    45 1   
    43    17    46 1   
    44    18    47 1   
    45    18    58 1   
    46    19    26 1   
    47    19    48 1   
    48    20    23 1   
    49    20    49 1   
    50    21    50 1   
    51    21    51 1   
    52    21    52 1   
    53    22    24 1   
    54    22    53 1   
    55    22    54 1   
    56    23    24 1   
    57    23    55 1   
    58    24    25 1   
    59    24    56 1   
    60    25    57 1   
    61    26    58 1   
    62    58    60 1   
    63    58    61 1   
@<TRIPOS>SUBSTRUCTURE
     1 DJV         1 TEMP              0 ****  ****    0 ROOT
