@<TRIPOS>MOLECULE
molecule
   61    63     1     0     0
SMALL
bcc


@<TRIPOS>ATOM
      1 O1           0.0000     0.0000     0.0000 o          1 DJV      -0.625100
      2 C7           1.2120     0.0000     0.0000 c          1 DJV       0.681100
      3 O2          -0.4410     1.2310    -3.7600 oh         1 DJV      -0.611800
      4 C6           2.3770    -4.1240    -3.7980 ca         1 DJV       0.158900
      5 C1           1.5240    -3.1060    -1.3710 ca         1 DJV      -0.183500
      6 N1           1.8170     2.5710    -1.1290 n7         1 DJV      -0.800200
      7 C5           2.3270    -4.2330    -1.4050 ca         1 DJV       0.158900
      8 C4           1.1490    -2.4880    -2.5490 ca         1 DJV      -0.026300
      9 C3           2.7530    -4.7420    -2.6190 ca         1 DJV      -0.218000
     10 C2           1.5730    -2.9960    -3.7630 ca         1 DJV      -0.183500
     11 C8          -1.2340    10.7550    -0.7370 c3         1 DJV      -0.081400
     12 C9          -0.0290    10.5390     0.1800 c3         1 DJV      -0.078400
     13 C10         -1.9910     9.4350    -0.9040 c3         1 DJV      -0.078400
     14 C11          0.9010     9.4920    -0.4370 c3         1 DJV      -0.073900
     15 C12         -1.0620     8.3880    -1.5210 c3         1 DJV      -0.073900
     16 C13          0.2820     3.7650    -2.5340 c3         1 DJV      -0.078400
     17 C14          1.8730     3.9870    -0.7210 c3         1 DJV       0.122800
     18 C15          0.1430     8.1720    -0.6040 c3         1 DJV      -0.067700
     19 C16          1.1880     4.8100    -1.8320 c3         1 DJV       0.120100
     20 C17          1.1530     2.4880    -2.4480 c3         1 DJV       0.144500
     21 C18          1.9660     0.0000     1.3050 c3         1 DJV      -0.165100
     22 C19          0.2740    -1.2610    -2.5110 c3         1 DJV      -0.063100
     23 C21          0.2730     1.2370    -2.5220 c3         1 DJV       0.136100
     24 C22          1.1540    -0.0110    -2.4360 c3         1 DJV       0.124700
     25 N2           1.8860    -0.0050    -1.1680 ns         1 DJV      -0.575900
     26 O3           0.4030     5.8640    -1.2690 os         1 DJV      -0.414600
     27 F1           2.6950    -4.8350    -0.2530 f          1 DJV      -0.135900
     28 F2           2.7970    -4.6160    -4.9850 f          1 DJV      -0.135900
     29 H32         -1.3600     1.3550    -3.5930 ho         1 DJV       0.410000
     30 H1           1.1910    -2.7070    -0.4200 ha         1 DJV       0.153500
     31 H30          2.7470     2.2070    -1.2000 hn         1 DJV       0.343800
     32 H3           3.3820    -5.6240    -2.6460 ha         1 DJV       0.158000
     33 H2           1.2780    -2.5110    -4.6860 ha         1 DJV       0.153500
     34 H4          -1.8920    11.4940    -0.2980 hc         1 DJV       0.040200
     35 H7          -0.3710    10.1910     1.1470 hc         1 DJV       0.041950
     36 H6           0.5070    11.4730     0.2950 hc         1 DJV       0.041950
     37 H9          -2.3300     9.0900     0.0650 hc         1 DJV       0.041950
     38 H8          -2.8430     9.5900    -1.5560 hc         1 DJV       0.041950
     39 H11          1.7520     9.3380     0.2150 hc         1 DJV       0.043950
     40 H10          1.2390     9.8370    -1.4060 hc         1 DJV       0.043950
     41 H13         -0.7210     8.7350    -2.4890 hc         1 DJV       0.043950
     42 H12         -1.5990     7.4540    -1.6350 hc         1 DJV       0.043950
     43 H14         -0.6470     3.6350    -1.9920 hc         1 DJV       0.067700
     44 H15          0.1020     4.0410    -3.5660 hc         1 DJV       0.067700
     45 H17          1.3440     4.1210     0.2140 h1         1 DJV       0.052200
     46 H16          2.9050     4.2990    -0.6160 h1         1 DJV       0.052200
     47 H18         -0.2000     7.8310     0.3650 hc         1 DJV       0.064700
     48 H19          1.9240     5.2010    -2.5250 h1         1 DJV       0.040700
     49 H20          1.8910     2.4840    -3.2400 h1         1 DJV       0.038700
     50 H22          1.8240     0.9510     1.8040 hc         1 DJV       0.059367
     51 H21          3.0210    -0.1540     1.1130 hc         1 DJV       0.059367
     52 H23          1.5940    -0.7980     1.9370 hc         1 DJV       0.059367
     53 H25         -0.3330    -1.2220    -3.4080 hc         1 DJV       0.082200
     54 H24         -0.3690    -1.3030    -1.6410 hc         1 DJV       0.082200
     55 H28         -0.4310     1.2400    -1.6990 h1         1 DJV       0.091700
     56 H29          1.8580    -0.0150    -3.2590 h1         1 DJV       0.064700
     57 H31          2.8860    -0.0440    -1.1670 hn         1 DJV       0.312500
     58 C20          1.0730     7.1250    -1.2210 c3         1 DJV       0.138400
     59 H5          -0.8910    11.0980    -1.7060 hc         1 DJV       0.040200
     60 H26          1.9680     7.0360    -0.6170 h1         1 DJV       0.023200
     61 H27          1.3440     7.4290    -2.2250 h1         1 DJV       0.023200
@<TRIPOS>BOND
     1    27     7 1
     2     9     7 ar
     3     9     4 ar
     4    28     4 1
     5     7     5 ar
     6     4    10 ar
     7     5     8 ar
     8    10     8 ar
     9     8    22 1
    10    22    24 1
    11     1     2 2
    12    24    25 1
    13    24    23 1
    14     2    25 1
    15     2    21 1
    16    11    12 1
    17    11    13 1
    18     3    23 1
    19    12    14 1
    20    14    18 1
    21    23    20 1
    22    13    15 1
    23    15    18 1
    24    18    58 1
    25    16    20 1
    26    16    19 1
    27    58    26 1
    28    20     6 1
    29    26    19 1
    30    19    17 1
    31     6    17 1
    32     3    29 1
    33     5    30 1
    34     6    31 1
    35     9    32 1
    36    10    33 1
    37    11    59 1
    38    11    34 1
    39    12    35 1
    40    12    36 1
    41    13    37 1
    42    13    38 1
    43    14    39 1
    44    14    40 1
    45    15    41 1
    46    15    42 1
    47    16    43 1
    48    16    44 1
    49    17    45 1
    50    17    46 1
    51    18    47 1
    52    19    48 1
    53    20    49 1
    54    21    50 1
    55    21    51 1
    56    21    52 1
    57    22    53 1
    58    22    54 1
    59    58    60 1
    60    58    61 1
    61    23    55 1
    62    24    56 1
    63    25    57 1
@<TRIPOS>SUBSTRUCTURE
     1 DJV         1 TEMP              0 ****  ****    0 ROOT
