@<TRIPOS>MOLECULE
molecule
   67    72     1     0     0
SMALL
bcc


@<TRIPOS>ATOM
      1 C4           0.0000     0.0000     0.0000 ca         1 DJW      -0.236300
      2 C5           1.3820     0.0000     0.0000 ca         1 DJW      -0.085000
      3 C6           2.0500     0.0000     1.2270 ca         1 DJW      -0.101700
      4 C17          7.8830     1.3550    -1.8830 c3         1 DJW      -0.092400
      5 C20          3.6390     0.0010     2.8540 c          1 DJW       0.728500
      6 C22          2.2890     0.0020     3.5290 c3         1 DJW      -0.183300
      7 C26          3.1830    -1.2570     5.4900 c3         1 DJW       0.092500
      8 C1          -2.6800    -0.0020     2.4960 c3         1 DJW       0.136700
      9 C3          -0.6820    -0.0000     1.2110 ca         1 DJW       0.643600
     10 N7           3.4140     0.0000     1.5280 n          1 DJW      -0.349000
     11 C9           4.8380     1.4200     0.1700 c          1 DJW       0.651100
     12 N10          5.7970     1.6650    -0.7440 n          1 DJW      -0.497800
     13 C11          6.2510     2.9960    -1.1760 c3         1 DJW       0.068700
     14 C12          5.0890     3.7570    -1.8180 c3         1 DJW       0.599900
     15 F13          4.0600     3.9150    -0.8840 f          1 DJW      -0.218633
     16 F14          5.5330     5.0140    -2.2400 f          1 DJW      -0.218633
     17 F15          4.6140     3.0370    -2.9190 f          1 DJW      -0.218633
     18 C16          7.3770     2.7840    -2.2100 c3         1 DJW      -0.091400
     19 C18          6.5680     0.6440    -1.4770 c3         1 DJW       0.091000
     20 O19          4.2680     2.3420     0.7130 o          1 DJW      -0.561100
     21 O21          4.7220    -0.0000     3.4030 o          1 DJW      -0.607500
     22 C23          1.2960     0.0000     2.3930 ca         1 DJW       0.430600
     23 N24         -0.0200    -0.0010     2.3550 nb         1 DJW      -0.731000
     24 C25          2.1220    -1.2510     4.3850 c3         1 DJW      -0.073400
     25 N27          3.1030     0.0100     6.2300 n          1 DJW      -0.481800
     26 O29          2.7840    -1.0320     8.1660 o          1 DJW      -0.613100
     27 C30          3.0080     1.2890     8.3150 ca         1 DJW      -0.184600
     28 C31          2.1000     1.5260     9.3580 ca         1 DJW      -0.036000
     29 C32          2.1330     2.6950    10.0540 ca         1 DJW      -0.169000
     30 C33          3.0730     3.6760     9.7360 ca         1 DJW      -0.003200
     31 N34          3.3480     4.9180    10.2380 na         1 DJW      -0.051100
     32 N35          4.4170     5.4760     9.5290 nc         1 DJW      -0.499100
     33 C36          4.8250     4.6470     8.6110 cd         1 DJW       0.384800
     34 C37          3.9910     3.4500     8.6900 ca         1 DJW      -0.268900
     35 C38          3.9580     2.2470     7.9830 ca         1 DJW      -0.030000
     36 C39          3.1850     1.2730     5.4830 c3         1 DJW       0.092500
     37 C40          2.1230     1.2590     4.3780 c3         1 DJW      -0.073400
     38 H1          -0.5420     0.1460    -0.9270 ha         1 DJW       0.158000
     39 H2           1.9350     0.0000    -0.9310 ha         1 DJW       0.143000
     40 H3           4.1270    -0.5120    -0.3720 h1         1 DJW       0.082700
     41 H4           5.3470    -0.5110     0.9090 h1         1 DJW       0.082700
     42 H6           8.3180     0.8900    -2.7600 hc         1 DJW       0.064700
     43 H7           4.1670    -1.3570     5.0480 h1         1 DJW       0.073450
     44 H8           2.9970    -2.0830     6.1660 h1         1 DJW       0.073450
     45 H9          -3.7540     0.0100     2.3510 h1         1 DJW       0.047033
     46 H10         -2.4000    -0.8910     3.0460 h1         1 DJW       0.047033
     47 H11         -2.3820     0.8780     3.0540 h1         1 DJW       0.047033
     48 H12          6.6330     3.5460    -0.3250 h1         1 DJW       0.097700
     49 H13          8.1670     3.5110    -2.0670 hc         1 DJW       0.071700
     50 H14          6.9820     2.8280    -3.2180 hc         1 DJW       0.071700
     51 H15          6.7820    -0.1990    -0.8320 h1         1 DJW       0.052200
     52 H16          6.0260     0.3250    -2.3580 h1         1 DJW       0.052200
     53 H17          1.1350    -1.2520     4.8320 hc         1 DJW       0.066700
     54 H18          2.2440    -2.1300     3.7630 hc         1 DJW       0.066700
     55 H19          1.3660     0.7710     9.6120 ha         1 DJW       0.152000
     56 H20          1.4260     2.8650    10.8570 ha         1 DJW       0.135000
     57 H21          2.8600     5.3590    10.9930 hn         1 DJW       0.333700
     58 H22          5.6370     4.8150     7.9140 h4         1 DJW       0.064800
     59 H23          4.7580     2.0010     7.2950 ha         1 DJW       0.146000
     60 H24          4.1680     1.3690     5.0400 h1         1 DJW       0.073450
     61 H25          2.9990     2.1030     6.1540 h1         1 DJW       0.073450
     62 H26          1.1370     1.2640     4.8260 hc         1 DJW       0.066700
     63 H27          2.2450     2.1350     3.7510 hc         1 DJW       0.066700
     64 C8           4.4750    -0.0010     0.5170 c3         1 DJW       0.043000
     65 C28          2.9580     0.0140     7.5700 c          1 DJW       0.681700
     66 O2          -2.0400    -0.0010     1.2180 os         1 DJW      -0.439100
     67 H5           8.5840     1.3730    -1.0570 hc         1 DJW       0.064700
@<TRIPOS>BOND
     1    16    14 1
     2    15    14 1
     3    14    17 1
     4    14    13 1
     5    13    18 1
     6    13    12 1
     7    18     4 1
     8    20    11 2
     9    32    33 2
    10    32    31 1
    11    12    11 1
    12    12    19 1
    13    33    34 1
    14     4    19 1
    15    11    64 1
    16    31    30 1
    17    34    30 ar
    18    34    35 ar
    19    24     7 1
    20    24     6 1
    21    30    29 ar
    22     1     2 ar
    23     1     9 ar
    24     2     3 ar
    25    66     9 1
    26    66     8 1
    27    64    10 1
    28     9    23 ar
    29     7    25 1
    30     3    10 1
    31     3    22 ar
    32    35    27 ar
    33    10     5 1
    34    23    22 ar
    35    21     5 2
    36    22     6 1
    37     5     6 1
    38     6    37 1
    39    29    28 ar
    40    27    28 ar
    41    27    65 1
    42    25    65 1
    43    25    36 1
    44    37    36 1
    45    65    26 2
    46     1    38 1
    47     2    39 1
    48    64    40 1
    49    64    41 1
    50     4    67 1
    51     4    42 1
    52     7    43 1
    53     7    44 1
    54     8    45 1
    55     8    46 1
    56     8    47 1
    57    13    48 1
    58    18    49 1
    59    18    50 1
    60    19    51 1
    61    19    52 1
    62    24    53 1
    63    24    54 1
    64    28    55 1
    65    29    56 1
    66    31    57 1
    67    33    58 1
    68    35    59 1
    69    36    60 1
    70    36    61 1
    71    37    62 1
    72    37    63 1
@<TRIPOS>SUBSTRUCTURE
     1 DJW         1 TEMP              0 ****  ****    0 ROOT
