@<TRIPOS>MOLECULE
DJY
   65    68     1     0     0
SMALL
bcc


@<TRIPOS>ATOM
      1 C01          0.0000     0.0000     0.0000 c3         1 DJY       0.241700
      2 C04          1.2900    -0.0000     2.3690 ca         1 DJY      -0.220000
      3 C06          3.3250    -0.0020     3.6870 ca         1 DJY      -0.140600
      4 C07          4.0830    -0.0010     2.5190 ca         1 DJY      -0.041000
      5 C09          4.2480     0.0020     0.0400 ce         1 DJY      -0.044200
      6 C10          5.5740     0.0020     0.1060 c2         1 DJY      -0.207000
      7 C11          3.9950    -0.0020     5.0020 c          1 DJY       0.626700
      8 C14          5.9740     0.1080     6.3110 ca         1 DJY       0.015600
      9 C15          7.1820    -0.5450     6.5330 ca         1 DJY      -0.117000
     10 C17          7.2380     0.3360     8.7660 ca         1 DJY      -0.303900
     11 C18          6.0250     0.9910     8.5390 ca         1 DJY      -0.043000
     12 C19          5.4000     0.8750     7.3190 ca         1 DJY      -0.117000
     13 C20          7.9120     0.4590    10.0770 ce         1 DJY       0.248800
     14 N21          7.3440     1.2190    11.0760 nz         1 DJY       0.187400
     15 C23          1.1100    -0.0020     4.8490 cp         1 DJY      -0.124300
     16 C24          0.2940    -1.0930     5.1650 ca         1 DJY      -0.104000
     17 C26         -0.3520     0.0770     7.1580 ca         1 DJY       0.288800
     18 C28          1.1530     1.0960     5.7310 ca         1 DJY       0.395800
     19 C29          2.0090     2.2600     5.4140 c          1 DJY       0.865100
     20 C32         -1.1420     0.1290     8.4110 c          1 DJY       0.491600
     21 N34         -1.0630     1.2080     9.2130 ns         1 DJY      -0.183900
     22 C35         -1.8430     1.2590    10.4520 c3         1 DJY       0.089000
     23 C38         -2.3870     2.8800    12.4320 cx         1 DJY      -0.082900
     24 O02          1.4290     0.0000     0.0000 os         1 DJY      -0.309900
     25 C03          2.0460     0.0000     1.2090 ca         1 DJY       0.196100
     26 C05          1.9190    -0.0010     3.6110 cp         1 DJY       0.160000
     27 C08          3.4470     0.0010     1.2800 ca         1 DJY      -0.121800
     28 O12          3.3330    -0.0030     6.0210 o          1 DJY      -0.613100
     29 N13          5.3400    -0.0030     5.0730 ns         1 DJY      -0.036100
     30 C16          7.8130    -0.4330     7.7520 ca         1 DJY      -0.043000
     31 N22          9.0440    -0.1520    10.2860 n2         1 DJY      -0.564100
     32 C25         -0.4420    -1.0490     6.3330 ca         1 DJY      -0.176300
     33 N27          0.4340     1.0940     6.8410 nb         1 DJY      -0.517000
     34 O30          2.0550     3.3120     6.2540 o          1 DJY      -0.876300
     35 O31          2.6710     2.2670     4.3960 o          1 DJY      -0.876300
     36 O33         -1.8600    -0.8040     8.7150 o          1 DJY      -0.685100
     37 C36         -1.5740     2.5830    11.1710 cx         1 DJY      -0.124700
     38 C37         -0.9060     2.5170    12.5450 cx         1 DJY      -0.082900
     39 H013        -0.3610     0.0090    -1.0210 h1         1 DJY      -0.000967
     40 H012        -0.3610    -0.8890     0.5030 h1         1 DJY      -0.000967
     41 H011        -0.3610     0.8800     0.5180 h1         1 DJY      -0.000967
     42 H041         0.2080     0.0100     2.3100 ha         1 DJY       0.129000
     43 H071         5.1630    -0.0750     2.5730 ha         1 DJY       0.096000
     44 H091         3.7540     0.0060    -0.9240 ha         1 DJY       0.109000
     45 H101         6.0680     0.0020     1.0700 ha         1 DJY       0.082500
     46 H102         6.1610     0.0030    -0.8040 ha         1 DJY       0.082500
     47 H151         7.6280    -1.1420     5.7470 ha         1 DJY       0.161000
     48 H181         5.5770     1.5890     9.3240 ha         1 DJY       0.091000
     49 H191         4.4590     1.3830     7.1420 ha         1 DJY       0.161000
     50 H212         6.4410     0.8510    11.3020 hn         1 DJY       0.219800
     51 H241         0.2400    -1.9540     4.5090 ha         1 DJY       0.101000
     52 H341        -0.4820     1.9810     8.9560 hn         1 DJY       0.210500
     53 H352        -2.8980     1.1840    10.2170 h1         1 DJY       0.022200
     54 H351        -1.5560     0.4350    11.0940 h1         1 DJY       0.022200
     55 H382        -2.6260     3.9240    12.5980 hc         1 DJY       0.043450
     56 H381        -3.0830     2.1060    12.7330 hc         1 DJY       0.043450
     57 H131         5.8850    -0.1030     4.2390 hn         1 DJY       0.185500
     58 H161         8.7530    -0.9420     7.9250 ha         1 DJY       0.091000
     59 H1           9.4580    -0.7050     9.5610 hn         1 DJY       0.379400
     60 H251        -1.0830    -1.8780     6.6070 ha         1 DJY       0.125000
     61 H361        -1.3150     3.4540    10.5820 hc         1 DJY       0.069700
     62 H372        -0.6960     1.5200    12.9160 hc         1 DJY       0.043450
     63 H371        -0.2400     3.3380    12.7810 hc         1 DJY       0.043450
     64 H211         7.9270     1.1920    11.8880 hn         1 DJY       0.219800
     65 H213         7.2500     2.1650    10.7630 hn         1 DJY       0.219800
@<TRIPOS>BOND
     1     1    24 1   
     2     1    39 1   
     3     1    40 1   
     4     1    41 1   
     5     2    25 ar  
     6     2    26 ar  
     7     2    42 1   
     8     3     4 ar  
     9     3     7 1   
    10     3    26 ar  
    11     4    27 ar  
    12     4    43 1   
    13     5     6 2   
    14     5    27 1   
    15     5    44 1   
    16     6    45 1   
    17     6    46 1   
    18     7    28 2   
    19     7    29 1   
    20     8     9 ar  
    21     8    12 ar  
    22     8    29 1   
    23     9    30 ar  
    24     9    47 1   
    25    10    11 ar  
    26    10    13 1   
    27    10    30 ar  
    28    11    12 ar  
    29    11    48 1   
    30    12    49 1   
    31    13    14 1   
    32    13    31 2   
    33    14    50 1   
    34    14    64 1   
    35    14    65 1   
    36    15    16 ar  
    37    15    18 ar  
    38    15    26 1   
    39    16    32 ar  
    40    16    51 1   
    41    17    20 1   
    42    17    32 ar  
    43    17    33 ar  
    44    18    19 1   
    45    18    33 ar  
    46    19    34 1   
    47    19    35 1   
    48    20    21 1   
    49    20    36 2   
    50    21    22 1   
    51    21    52 1   
    52    22    37 1   
    53    22    53 1   
    54    22    54 1   
    55    23    37 1   
    56    23    38 1   
    57    23    55 1   
    58    23    56 1   
    59    24    25 1   
    60    25    27 ar  
    61    29    57 1   
    62    30    58 1   
    63    31    59 1   
    64    32    60 1   
    65    37    38 1   
    66    37    61 1   
    67    38    62 1   
    68    38    63 1   
@<TRIPOS>SUBSTRUCTURE
     1 DJY         1 TEMP              0 ****  ****    0 ROOT
