@<TRIPOS>MOLECULE
molecule
   64    67     1     0     0
SMALL
bcc


@<TRIPOS>ATOM
      1 O1           0.0000     0.0000     0.0000 os         1 DJZ      -0.351400
      2 C2           1.3550     0.0000     0.0000 ca         1 DJZ       0.723600
      3 N3           2.0280     0.0000     1.1440 nb         1 DJZ      -0.865000
      4 N4           4.0520    -0.0030     0.0220 nb         1 DJZ      -0.823000
      5 C5           3.4440    -0.0090    -1.1540 ca         1 DJZ       0.520200
      6 C6           3.3530    -0.0010     1.1480 ca         1 DJZ       0.974900
      7 C7           2.0620    -0.0080    -1.2020 ca         1 DJZ      -0.455600
      8 C8          -0.6370     0.0020     1.1980 ca         1 DJZ       0.126100
      9 C9          -0.9620     1.2080     1.8100 ca         1 DJZ      -0.074300
     10 C10         -1.6080     1.2140     3.0260 ca         1 DJZ      -0.092000
     11 C11         -1.9380     0.0050     3.6450 ca         1 DJZ      -0.012000
     12 C12         -1.6100    -1.2050     3.0270 ca         1 DJZ      -0.092000
     13 C13         -0.9690    -1.2010     1.8080 ca         1 DJZ      -0.074300
     14 C14         -0.6200    -2.5060     1.1390 c3         1 DJZ      -0.050800
     15 C15         -0.6050     2.5090     1.1400 c3         1 DJZ      -0.050800
     16 C16         -2.6100     0.0070     4.9100 cg         1 DJZ       0.240800
     17 N17          4.0240    -0.0010     2.3590 nu         1 DJZ      -0.888900
     18 C18          5.4890    -0.0010     2.3850 c3         1 DJZ       0.242500
     19 C19          5.9790     0.6100     3.7000 c3         1 DJZ      -0.088900
     20 C20          7.5070     0.5500     3.7480 c3         1 DJZ       0.158800
     21 N21          7.9470    -0.8460     3.6420 n3         1 DJZ      -0.718600
     22 C22          7.5290    -1.4400     2.3650 c3         1 DJZ       0.158800
     23 C23          6.0010    -1.4400     2.2770 c3         1 DJZ      -0.088900
     24 N24         -3.1580    -0.0020     5.9040 n1         1 DJZ      -0.362800
     25 C25          9.4010    -0.9550     3.8220 c3         1 DJZ       0.199100
     26 C26          9.7840    -2.4070     3.9540 ca         1 DJZ      -0.026300
     27 C27         10.1010    -3.1430     2.8270 ca         1 DJZ      -0.141000
     28 C28         10.4520    -4.4750     2.9480 ca         1 DJZ      -0.031000
     29 C29         10.4860    -5.0700     4.1950 ca         1 DJZ      -0.298500
     30 C30         10.1690    -4.3340     5.3210 ca         1 DJZ      -0.031000
     31 C31          9.8220    -3.0020     5.2010 ca         1 DJZ      -0.141000
     32 S32         10.9320    -6.7670     4.3480 sy         1 DJZ       1.191300
     33 O33         10.2930    -7.1910     5.5450 o          1 DJZ      -0.618300
     34 O34         10.5860    -7.3360     3.0920 o          1 DJZ      -0.618300
     35 C35         12.7330    -6.7450     4.5600 c3         1 DJZ      -0.227300
     36 H5           4.0290    -0.0100    -2.0660 h4         1 DJZ       0.033100
     37 H7           1.5290     0.0110    -2.1450 ha         1 DJZ       0.156000
     38 H10         -1.8600     2.1550     3.5000 ha         1 DJZ       0.146500
     39 H12         -1.8650    -2.1430     3.5050 ha         1 DJZ       0.146500
     40 H14         -0.6490    -2.3790     0.0630 hc         1 DJZ       0.052200
     41 H14A        -1.3350    -3.2650     1.4320 hc         1 DJZ       0.052200
     42 H14B         0.3750    -2.8110     1.4400 hc         1 DJZ       0.052200
     43 H15         -0.6350     2.3820     0.0650 hc         1 DJZ       0.052200
     44 H15A        -1.3170     3.2720     1.4330 hc         1 DJZ       0.052200
     45 H15B         0.3910     2.8100     1.4410 hc         1 DJZ       0.052200
     46 HN17         3.5160    -0.1240     3.2120 hn         1 DJZ       0.457800
     47 H18          5.8710     0.5800     1.5540 h1         1 DJZ       0.080700
     48 H19          5.7050     1.6580     3.7230 hc         1 DJZ       0.057200
     49 H19A         5.4980     0.0980     4.5250 hc         1 DJZ       0.057200
     50 H20          7.8390     0.8760     4.7260 h1         1 DJZ       0.040700
     51 H20A         7.9070     1.2180     2.9940 h1         1 DJZ       0.040700
     52 H22          7.7700    -2.4960     2.3750 h1         1 DJZ       0.040700
     53 H22A         8.0710    -0.9580     1.5610 h1         1 DJZ       0.040700
     54 H23          5.7450    -1.8310     1.3000 hc         1 DJZ       0.057200
     55 H23A         5.5210    -2.0400     3.0400 hc         1 DJZ       0.057200
     56 H25          9.7190    -0.2820     4.6100 h1         1 DJZ       0.043700
     57 H25A         9.9000    -0.6910     2.8980 h1         1 DJZ       0.043700
     58 H27         10.0370    -2.6870     1.8470 ha         1 DJZ       0.140000
     59 H28         10.7010    -5.0510     2.0650 ha         1 DJZ       0.151000
     60 H30         10.1950    -4.8010     6.2980 ha         1 DJZ       0.151000
     61 H31          9.5390    -2.4350     6.0810 ha         1 DJZ       0.140000
     62 H35         12.9850    -6.1750     5.4470 h1         1 DJZ       0.097700
     63 H35A        13.1940    -6.2860     3.6940 h1         1 DJZ       0.097700
     64 H35B        13.0970    -7.7590     4.6680 h1         1 DJZ       0.097700
@<TRIPOS>BOND
     1     1     2 1
     2     1     8 1
     3     2     3 ar
     4     2     7 ar
     5     3     6 ar
     6     4     5 ar
     7     4     6 ar
     8     5     7 ar
     9     6    17 1
    10     8     9 ar
    11     8    13 ar
    12     9    10 ar
    13     9    15 1
    14    10    11 ar
    15    11    12 ar
    16    11    16 1
    17    12    13 ar
    18    13    14 1
    19    16    24 3
    20    17    18 1
    21    18    19 1
    22    18    23 1
    23    19    20 1
    24    20    21 1
    25    21    22 1
    26    21    25 1
    27    22    23 1
    28    25    26 1
    29    26    27 ar
    30    26    31 ar
    31    27    28 ar
    32    28    29 ar
    33    29    30 ar
    34    29    32 1
    35    30    31 ar
    36    32    33 2
    37    32    34 2
    38    32    35 1
    39     5    36 1
    40     7    37 1
    41    10    38 1
    42    12    39 1
    43    14    40 1
    44    14    41 1
    45    14    42 1
    46    15    43 1
    47    15    44 1
    48    15    45 1
    49    17    46 1
    50    18    47 1
    51    19    48 1
    52    19    49 1
    53    20    50 1
    54    20    51 1
    55    22    52 1
    56    22    53 1
    57    23    54 1
    58    23    55 1
    59    25    56 1
    60    25    57 1
    61    27    58 1
    62    28    59 1
    63    30    60 1
    64    31    61 1
    65    35    62 1
    66    35    63 1
    67    35    64 1
@<TRIPOS>SUBSTRUCTURE
     1 DJZ         1 TEMP              0 ****  ****    0 ROOT
