@<TRIPOS>MOLECULE
molecule
   20    21     1     0     0
SMALL
bcc


@<TRIPOS>ATOM
      1 O1           0.0000     0.0000     0.0000 o          1 DK1      -0.806800
      2 C2           1.3470     0.0000     0.0000 c          1 DK1       0.776100
      3 O2           1.9550     0.0000     1.0500 o          1 DK1      -0.806800
      4 C1           2.0870     0.0000    -1.2850 ca         1 DK1       0.450800
      5 N1           1.4120    -0.0030    -2.4180 nb         1 DK1      -0.650000
      6 C10          2.0290     0.0000    -3.6010 ca         1 DK1       0.439600
      7 C9           1.2930     0.0020    -4.7990 ca         1 DK1      -0.153300
      8 C8           1.9470     0.0020    -5.9940 ca         1 DK1       0.028400
      9 Cl2          1.0310     0.0020    -7.4680 cl         1 DK1      -0.133400
     10 C7           3.3380     0.0020    -6.0510 ca         1 DK1      -0.157000
     11 C6           4.0850     0.0010    -4.9100 ca         1 DK1       0.073400
     12 Cl1          5.8190     0.0020    -5.0020 cl         1 DK1      -0.105400
     13 C5           3.4450     0.0010    -3.6610 ca         1 DK1      -0.188300
     14 C4           4.1850     0.0010    -2.4590 ca         1 DK1       0.121100
     15 O3           5.5410     0.0020    -2.4740 oh         1 DK1      -0.509100
     16 C3           3.4860     0.0010    -1.2660 ca         1 DK1      -0.267300
     17 H9           0.2140    -0.0860    -4.7720 ha         1 DK1       0.165000
     18 H7           3.8340     0.0020    -7.0140 ha         1 DK1       0.140000
     19 HO3          5.8600     0.7450    -1.9880 ho         1 DK1       0.416000
     20 H3           4.0150    -0.1180    -0.3280 ha         1 DK1       0.168000
@<TRIPOS>BOND
     1     1     2 1
     2     2     3 1
     3     2     4 1
     4     4     5 ar
     5     4    16 ar
     6     5     6 ar
     7     6     7 ar
     8     6    13 ar
     9     7     8 ar
    10     7    17 1
    11     8     9 1
    12     8    10 ar
    13    10    11 ar
    14    10    18 1
    15    11    12 1
    16    11    13 ar
    17    13    14 ar
    18    14    15 1
    19    14    16 ar
    20    15    19 1
    21    16    20 1
@<TRIPOS>SUBSTRUCTURE
     1 DK1         1 TEMP              0 ****  ****    0 ROOT
