@<TRIPOS>MOLECULE
DK1
   20    21     1     0     0
SMALL
bcc


@<TRIPOS>ATOM
      1 O1          0.8710   -1.0650    0.5000 o         1 DK1     -0.796300
      2 C2          1.3030    0.0320    0.0710 c         1 DK1      0.828100
      3 O2          1.2680    1.1450    0.6480 o         1 DK1     -0.796300
      4 C1          2.0280   -0.0060   -1.3040 ca        1 DK1      0.438800
      5 N1          1.3710    0.1810   -2.4400 nb        1 DK1     -0.682000
      6 C10         2.0770    0.1350   -3.6240 ca        1 DK1      0.436600
      7 C9          1.3350    0.3420   -4.8350 ca        1 DK1     -0.170300
      8 C8          1.9730    0.3090   -6.0480 ca        1 DK1      0.024400
      9 CL2         1.0940    0.5550   -7.4920 cl        1 DK1     -0.125400
     10 C7          3.3620    0.0720   -6.1420 ca        1 DK1     -0.172000
     11 C6          4.0980   -0.1300   -4.9920 ca        1 DK1      0.081400
     12 CL1         5.7670   -0.4060   -5.2310 cl        1 DK1     -0.103400
     13 C5          3.4940   -0.1070   -3.7060 ca        1 DK1     -0.173300
     14 C4          4.1530   -0.3030   -2.4450 ca        1 DK1      0.144100
     15 O3          5.5100   -0.5400   -2.4360 oh        1 DK1     -0.501100
     16 C3          3.4370   -0.2540   -1.2660 ca        1 DK1     -0.312300
     17 H9          0.2500    0.5260   -4.7630 ha        1 DK1      0.164000
     18 H7          3.8420    0.0520   -7.1320 ha        1 DK1      0.146000
     19 HO3         5.7780   -0.6460   -1.5110 ho        1 DK1      0.416000
     20 H3          3.9150   -0.4000   -0.2880 ha        1 DK1      0.152000
@<TRIPOS>BOND
     1    1    2 1   
     2    2    3 1   
     3    2    4 1   
     4    4    5 ar  
     5    4   16 ar  
     6    5    6 ar  
     7    6    7 ar  
     8    6   13 ar  
     9    7    8 ar  
    10    7   17 1   
    11    8    9 1   
    12    8   10 ar  
    13   10   11 ar  
    14   10   18 1   
    15   11   12 1   
    16   11   13 ar  
    17   13   14 ar  
    18   14   15 1   
    19   14   16 ar  
    20   15   19 1   
    21   16   20 1   
@<TRIPOS>SUBSTRUCTURE
     1 DK1         1 TEMP              0 ****  ****    0 ROOT
