@<TRIPOS>MOLECULE
molecule
   37    39     1     0     0
SMALL
bcc


@<TRIPOS>ATOM
      1 O11          0.0000     0.0000     0.0000 o          1 DK2      -0.592500
      2 C7           1.2150     0.0000     0.0000 c          1 DK2       0.734100
      3 C5           2.0790     0.0000     1.2020 ca         1 DK2      -0.166600
      4 C4           3.4050    -0.0000     0.7220 ca         1 DK2      -0.182600
      5 C3           4.4630     0.0000     1.6140 ca         1 DK2      -0.043000
      6 C6           1.8340     0.0000     2.5660 ca         1 DK2      -0.103000
      7 C1           2.8940    -0.0000     3.4570 ca         1 DK2      -0.097000
      8 C2           4.2070     0.0000     2.9880 ca         1 DK2      -0.107600
      9 C23          5.3340     0.0000     3.9480 c          1 DK2       0.886200
     10 O24          5.0890     0.0000     5.2730 o          1 DK2      -0.842800
     11 O25          6.4780    -0.0010     3.5420 o          1 DK2      -0.842800
     12 N8           2.0000    -0.0060    -1.0920 n          1 DK2      -0.460400
     13 C9           3.3010    -0.0010    -0.7530 c          1 DK2       0.729100
     14 O10          4.2360     0.0000    -1.5280 o          1 DK2      -0.626500
     15 C12          1.5030    -0.0140    -2.4700 c3         1 DK2       0.017700
     16 C13          0.6630    -1.2440    -2.6950 c          1 DK2       0.888600
     17 O14          0.1000    -1.4640    -3.8940 o          1 DK2      -0.833300
     18 O15          0.4980    -2.0350    -1.7970 o          1 DK2      -0.833300
     19 C16          0.6520     1.2350    -2.7120 c3         1 DK2      -0.047100
     20 C17          1.5200     2.4630    -2.6080 ca         1 DK2      -0.064300
     21 C18          2.1530     2.9590    -3.7330 ca         1 DK2      -0.114500
     22 C19          2.9500     4.0830    -3.6400 ca         1 DK2      -0.154000
     23 C20          3.1140     4.7160    -2.4160 ca         1 DK2       0.071100
     24 O26          3.8970     5.8230    -2.3220 oh         1 DK2      -0.541100
     25 C21          2.4770     4.2180    -1.2890 ca         1 DK2      -0.154000
     26 C22          1.6780     3.0950    -1.3880 ca         1 DK2      -0.114500
     27 H3           5.4830     0.0010     1.2490 ha         1 DK2       0.157000
     28 H6           0.8150    -0.0000     2.9340 ha         1 DK2       0.121000
     29 H1           2.7020    -0.0000     4.5230 ha         1 DK2       0.152000
     30 H12          2.3410    -0.0180    -3.1570 h1         1 DK2       0.077700
     31 H161         0.2120     1.1860    -3.7010 hc         1 DK2       0.073700
     32 H162        -0.1350     1.2850    -1.9690 hc         1 DK2       0.073700
     33 H18          2.0240     2.4640    -4.6880 ha         1 DK2       0.139500
     34 H19          3.4450     4.4710    -4.5220 ha         1 DK2       0.124000
     35 HO26         4.7830     5.5650    -2.1290 ho         1 DK2       0.410000
     36 H21          2.6020     4.7120    -0.3330 ha         1 DK2       0.124000
     37 H22          1.1810     2.7060    -0.5080 ha         1 DK2       0.139500
@<TRIPOS>BOND
     1     1     2 2
     2     2    12 1
     3     2     3 1
     4     3     4 ar
     5     3     6 ar
     6     4    13 1
     7     4     5 ar
     8     5     8 ar
     9     5    27 1
    10     6     7 ar
    11     6    28 1
    12     7     8 ar
    13     7    29 1
    14     8     9 1
    15     9    11 1
    16     9    10 1
    17    12    15 1
    18    12    13 1
    19    13    14 2
    20    15    16 1
    21    15    19 1
    22    15    30 1
    23    16    18 1
    24    16    17 1
    25    19    20 1
    26    19    31 1
    27    19    32 1
    28    20    21 ar
    29    20    26 ar
    30    21    22 ar
    31    21    33 1
    32    22    23 ar
    33    22    34 1
    34    23    24 1
    35    23    25 ar
    36    24    35 1
    37    25    26 ar
    38    25    36 1
    39    26    37 1
@<TRIPOS>SUBSTRUCTURE
     1 DK2         1 TEMP              0 ****  ****    0 ROOT
