@<TRIPOS>MOLECULE
DK3
   42    41     1     0     0
SMALL
bcc


@<TRIPOS>ATOM
      1 C12        -0.0400    0.0990    0.0500 c3        1 DK3     -0.092100
      2 C13        13.6560    0.8800    8.3250 c3        1 DK3      0.124700
      3 C11         1.4660    0.1470    0.0560 c3        1 DK3     -0.080400
      4 O3         10.1450   -1.4230    5.1170 oh        1 DK3     -0.603800
      5 C3          9.7400   -0.1790    5.6670 c3        1 DK3      0.154100
      6 C2         10.2730   -0.0210    7.0930 c3        1 DK3     -0.171400
      7 C1         11.7610    0.1140    7.1030 c         1 DK3      0.632100
      8 O1         12.2380    0.7340    8.2230 os        1 DK3     -0.435900
      9 O2         12.5730   -0.2640    6.2530 o         1 DK3     -0.557000
     10 C4          8.2140   -0.1680    5.6750 c3        1 DK3     -0.075400
     11 C5          7.6630   -0.0630    4.2690 c3        1 DK3     -0.078400
     12 C6          6.1510   -0.1080    4.2710 c3        1 DK3     -0.078400
     13 C7          5.5980    0.0100    2.8660 c3        1 DK3     -0.078400
     14 C8          4.0850   -0.0390    2.8650 c3        1 DK3     -0.078400
     15 C9          3.5330    0.0790    1.4610 c3        1 DK3     -0.079400
     16 C10         2.0200    0.0290    1.4600 c3        1 DK3     -0.079400
     17 H12        -0.4050   -0.8650    0.4810 hc        1 DK3      0.032700
     18 H12A       -0.4640    0.9360    0.6550 hc        1 DK3      0.032700
     19 H12B       -0.4270    0.1870   -0.9940 hc        1 DK3      0.032700
     20 H13        14.0360    1.4950    7.4750 h1        1 DK3      0.053033
     21 H13A       14.1430   -0.1250    8.3180 h1        1 DK3      0.053033
     22 H13B       13.7980    1.3990    9.3040 h1        1 DK3      0.053033
     23 H11         1.8730   -0.6850   -0.5770 hc        1 DK3      0.038700
     24 H11A        1.8140    1.1100   -0.4040 hc        1 DK3      0.038700
     25 H3         10.1330    0.6620    5.0290 h1        1 DK3      0.043700
     26 H2         10.0050   -0.9280    7.7000 hc        1 DK3      0.091700
     27 H2A         9.8120    0.8770    7.5810 hc        1 DK3      0.091700
     28 H4          7.8610    0.6990    6.2900 hc        1 DK3      0.050200
     29 H4A         7.8440   -1.1110    6.1570 hc        1 DK3      0.050200
     30 H5          8.0710   -0.9080    3.6530 hc        1 DK3      0.049700
     31 H5A         8.0120    0.8920    3.7960 hc        1 DK3      0.049700
     32 H6          5.7490    0.7270    4.9040 hc        1 DK3      0.038700
     33 H6A         5.8030   -1.0700    4.7320 hc        1 DK3      0.038700
     34 H7          6.0020   -0.8240    2.2330 hc        1 DK3      0.040700
     35 H7A         5.9440    0.9720    2.4050 hc        1 DK3      0.040700
     36 H8          3.7400   -1.0020    3.3250 hc        1 DK3      0.039200
     37 H8A         3.6820    0.7940    3.4990 hc        1 DK3      0.039200
     38 H9          3.9370   -0.7540    0.8270 hc        1 DK3      0.039200
     39 H9A         3.8780    1.0420    1.0000 hc        1 DK3      0.039200
     40 H10         1.6160    0.8620    2.0940 hc        1 DK3      0.039200
     41 H10A        1.6750   -0.9340    1.9200 hc        1 DK3      0.039200
     42 HO3        11.1080   -1.3900    5.0250 ho        1 DK3      0.424000
@<TRIPOS>BOND
     1    1    3 1   
     2    1   17 1   
     3    1   18 1   
     4    1   19 1   
     5    2    8 1   
     6    2   20 1   
     7    2   21 1   
     8    2   22 1   
     9    3   16 1   
    10    3   23 1   
    11    3   24 1   
    12    4    5 1   
    13    4   42 1   
    14    5    6 1   
    15    5   10 1   
    16    5   25 1   
    17    6    7 1   
    18    6   26 1   
    19    6   27 1   
    20    7    8 1   
    21    7    9 2   
    22   10   11 1   
    23   10   28 1   
    24   10   29 1   
    25   11   12 1   
    26   11   30 1   
    27   11   31 1   
    28   12   13 1   
    29   12   32 1   
    30   12   33 1   
    31   13   14 1   
    32   13   34 1   
    33   13   35 1   
    34   14   15 1   
    35   14   36 1   
    36   14   37 1   
    37   15   16 1   
    38   15   38 1   
    39   15   39 1   
    40   16   40 1   
    41   16   41 1   
@<TRIPOS>SUBSTRUCTURE
     1 DK3         1 TEMP              0 ****  ****    0 ROOT
