@<TRIPOS>MOLECULE
molecule
   42    41     1     0     0
SMALL
bcc


@<TRIPOS>ATOM
      1 C12          0.0000     0.0000     0.0000 c3         1 DK3      -0.092100
      2 C13         13.8160     0.4880     8.2710 c3         1 DK3       0.139700
      3 C11          1.5310     0.0000     0.0000 c3         1 DK3      -0.084400
      4 O3          10.1660    -1.2200     5.2030 oh         1 DK3      -0.601800
      5 C3           9.6890     0.0020     5.7700 c3         1 DK3       0.159100
      6 C2          10.1990     0.1280     7.2080 c3         1 DK3      -0.136400
      7 C1          11.7010     0.2520     7.2000 c          1 DK3       0.637100
      8 O1          12.3710     0.3740     8.3560 os         1 DK3      -0.430900
      9 O2          12.3020     0.2390     6.1510 o          1 DK3      -0.556000
     10 C4           8.1600     0.0020     5.7710 c3         1 DK3      -0.097400
     11 C5           7.6500     0.0020     4.3280 c3         1 DK3      -0.081400
     12 C6           6.1190     0.0020     4.3280 c3         1 DK3      -0.081400
     13 C7           5.6100     0.0000     2.8850 c3         1 DK3      -0.081400
     14 C8           4.0800     0.0010     2.8860 c3         1 DK3      -0.081400
     15 C9           3.5700     0.0000     1.4430 c3         1 DK3      -0.082400
     16 C10          2.0400     0.0000     1.4430 c3         1 DK3      -0.081400
     17 H12         -0.3610    -0.8840     0.5110 hc         1 DK3       0.032367
     18 H12A        -0.3610     0.8850     0.5110 hc         1 DK3       0.032367
     19 H12B        -0.3610    -0.0000    -1.0210 hc         1 DK3       0.032367
     20 H13         14.2210    -0.3960     7.7940 h1         1 DK3       0.049033
     21 H13A        14.0760     1.3640     7.6890 h1         1 DK3       0.049033
     22 H13B        14.2300     0.5810     9.2680 h1         1 DK3       0.049033
     23 H11          1.8920     0.8850    -0.5110 hc         1 DK3       0.039700
     24 H11A         1.8920    -0.8850    -0.5110 hc         1 DK3       0.039700
     25 H3          10.0510     0.8380     5.1840 h1         1 DK3       0.047700
     26 H2           9.7670     1.0080     7.6690 hc         1 DK3       0.081200
     27 H2A          9.9130    -0.7520     7.7710 hc         1 DK3       0.081200
     28 H4           7.7990     0.8860     6.2820 hc         1 DK3       0.050700
     29 H4A          7.7990    -0.8830     6.2820 hc         1 DK3       0.050700
     30 H5           8.0110     0.8860     3.8180 hc         1 DK3       0.045200
     31 H5A          8.0110    -0.8830     3.8180 hc         1 DK3       0.045200
     32 H6           5.7580    -0.8830     4.8400 hc         1 DK3       0.041700
     33 H6A          5.7580     0.8860     4.8380 hc         1 DK3       0.041700
     34 H7           5.9720     0.8840     2.3740 hc         1 DK3       0.041700
     35 H7A          5.9710    -0.8850     2.3760 hc         1 DK3       0.041700
     36 H8           3.7200     0.8860     3.3960 hc         1 DK3       0.041200
     37 H8A          3.7190    -0.8830     3.3970 hc         1 DK3       0.041200
     38 H9           3.9320    -0.8840     0.9330 hc         1 DK3       0.041200
     39 H9A          3.9320     0.8850     0.9320 hc         1 DK3       0.041200
     40 H10          1.6790     0.8840     1.9530 hc         1 DK3       0.041200
     41 H10A         1.6790    -0.8850     1.9530 hc         1 DK3       0.041200
     42 HO3         10.6090    -1.0370     4.3900 ho         1 DK3       0.414000
@<TRIPOS>BOND
     1     3     1 1
     2     1    17 1
     3     1    18 1
     4     1    19 1
     5     2     8 1
     6     2    20 1
     7     2    21 1
     8     2    22 1
     9    16     3 1
    10     3    23 1
    11     3    24 1
    12     5     4 1
    13     4    42 1
    14     6     5 1
    15     5    10 1
    16     5    25 1
    17     7     6 1
    18     6    26 1
    19     6    27 1
    20     8     7 1
    21     9     7 2
    22    10    11 1
    23    10    28 1
    24    10    29 1
    25    11    12 1
    26    11    30 1
    27    11    31 1
    28    12    13 1
    29    12    32 1
    30    12    33 1
    31    13    14 1
    32    13    34 1
    33    13    35 1
    34    14    15 1
    35    14    36 1
    36    14    37 1
    37    15    16 1
    38    15    38 1
    39    15    39 1
    40    16    40 1
    41    16    41 1
@<TRIPOS>SUBSTRUCTURE
     1 DK3         1 TEMP              0 ****  ****    0 ROOT
