@<TRIPOS>MOLECULE
DK4
   32    33     1     0     0
SMALL
bcc


@<TRIPOS>ATOM
      1 C1           0.0000     0.0000     0.0000 c3         1 DK4       0.215500
      2 N1          -0.4890     0.0580    -1.3790 n          1 DK4       0.081000
      3 C2           1.5310     0.0000     0.0000 c3         1 DK4       0.116100
      4 N2          -1.6420    -0.9530    -3.1510 ns         1 DK4      -0.115500
      5 O2           2.0100    -1.1660    -0.6730 oh         1 DK4      -0.563800
      6 C3           2.0340     0.0000     1.4470 c3         1 DK4       0.128600
      7 F3           3.4320     0.0740     1.4560 f          1 DK4      -0.222300
      8 C4           1.4520     1.2140     2.1780 c3         1 DK4       0.129100
      9 O4           1.8560     1.1850     3.5480 oh         1 DK4      -0.568800
     10 C5          -0.0760     1.1660     2.0940 c3         1 DK4       0.179100
     11 O5          -0.4760     1.1370     0.7220 os         1 DK4      -0.397600
     12 C6          -0.6630     2.4070     2.7700 c3         1 DK4       0.226400
     13 O6          -2.0880     2.3070     2.7950 oh         1 DK4      -0.580800
     14 C7          -0.2350     1.1670    -2.1440 cc         1 DK4      -0.131400
     15 C8          -0.6860     1.2200    -3.4170 cd         1 DK4      -0.041700
     16 F8          -0.4460     2.3040    -4.1840 f          1 DK4      -0.123500
     17 C9          -1.4140     0.1190    -3.9350 c          1 DK4       0.598700
     18 O9          -1.8310     0.1430    -5.0800 o          1 DK4      -0.632500
     19 C10         -1.1770    -0.9810    -1.8880 c          1 DK4       0.589500
     20 O10         -1.3860    -1.9580    -1.1930 o          1 DK4      -0.687500
     21 H1          -0.3590    -0.9040     0.4770 h2         1 DK4       0.083700
     22 H2           1.8910     0.8880    -0.5060 h1         1 DK4       0.023700
     23 HN2         -2.1540    -1.7340    -3.5110 hn         1 DK4       0.212500
     24 HO2          2.8520    -0.9850    -1.0560 ho         1 DK4       0.406000
     25 H3           1.7110    -0.9080     1.9410 h1         1 DK4       0.060700
     26 H4           1.8110     2.1220     1.7090 h1         1 DK4       0.021700
     27 HO4          2.6090     1.7400     3.6650 ho         1 DK4       0.404000
     28 H5          -0.4350     0.2740     2.5920 h1         1 DK4       0.040700
     29 H6          -0.2870     2.4780     3.7830 h1         1 DK4       0.001200
     30 H6A         -0.3730     3.2910     2.2150 h1         1 DK4       0.001200
     31 HO6         -2.4400     2.9770     3.3570 ho         1 DK4       0.394000
     32 H7           0.2380     2.0350    -1.7010 h4         1 DK4       0.152000
@<TRIPOS>BOND
     1     1     2 1   
     2     1     3 1   
     3     1    11 1   
     4     1    21 1   
     5     2    14 1   
     6     2    19 1   
     7     3     5 1   
     8     3     6 1   
     9     3    22 1   
    10     4    17 1   
    11     4    19 1   
    12     4    23 1   
    13     5    24 1   
    14     6     7 1   
    15     6     8 1   
    16     6    25 1   
    17     8     9 1   
    18     8    10 1   
    19     8    26 1   
    20     9    27 1   
    21    10    11 1   
    22    10    12 1   
    23    10    28 1   
    24    12    13 1   
    25    12    29 1   
    26    12    30 1   
    27    13    31 1   
    28    14    15 2   
    29    14    32 1   
    30    15    16 1   
    31    15    17 1   
    32    17    18 2   
    33    19    20 2   
@<TRIPOS>SUBSTRUCTURE
     1 DK4         1 TEMP              0 ****  ****    0 ROOT
