@<TRIPOS>MOLECULE
DK5
   44    46     1     0     0
SMALL
bcc


@<TRIPOS>ATOM
      1 C1           0.0000     0.0000     0.0000 c3         1 DK5       0.244500
      2 N1          -0.4880     0.0580    -1.3800 n          1 DK5       0.058000
      3 C2           1.5310     0.0000     0.0000 c3         1 DK5      -0.125400
      4 N2          -0.6740     1.2250    -3.3900 nc         1 DK5      -0.568100
      5 C3           2.0340     0.0000     1.4470 c3         1 DK5       0.167600
      6 F3           3.4300     0.0730     1.4570 f          1 DK5      -0.224300
      7 C4           1.4530     1.2150     2.1780 c3         1 DK5       0.124100
      8 O4           1.8570     1.1850     3.5480 oh         1 DK5      -0.579800
      9 C5          -0.0760     1.1680     2.0940 c3         1 DK5       0.181100
     10 O5          -0.4740     1.1380     0.7220 os         1 DK5      -0.368600
     11 C6          -0.6620     2.4090     2.7700 c3         1 DK5       0.225400
     12 O6          -2.0870     2.3090     2.7950 oh         1 DK5      -0.587800
     13 C7          -1.1900    -0.9880    -1.8950 cc         1 DK5      -0.063400
     14 C8          -1.6380    -0.9220    -3.1720 cd         1 DK5      -0.385600
     15 C9          -1.3620     0.2310    -3.9340 cd         1 DK5       0.412200
     16 C10         -0.2450     1.1490    -2.1310 c          1 DK5       0.709900
     17 O10          0.3820     2.0790    -1.6520 o          1 DK5      -0.653500
     18 C11         -1.5390     1.4290    -5.9630 c          1 DK5       0.557700
     19 O11         -0.9090     2.3430    -5.4680 o          1 DK5      -0.533100
     20 C12         -2.0130     1.5290    -7.3590 ca         1 DK5      -0.162600
     21 C13         -2.7420     0.4840    -7.9280 ca         1 DK5      -0.058500
     22 C14         -3.1810     0.5840    -9.2320 ca         1 DK5      -0.109000
     23 C15         -2.9020     1.7170    -9.9750 ca         1 DK5      -0.075000
     24 C16         -2.1800     2.7570    -9.4160 ca         1 DK5      -0.109000
     25 C17         -1.7380     2.6720    -8.1120 ca         1 DK5      -0.058500
     26 H1          -0.3590    -0.9040     0.4770 h2         1 DK5       0.015700
     27 H2           1.8920    -0.8860    -0.5070 hc         1 DK5       0.061200
     28 H2A          1.8920     0.8860    -0.5070 hc         1 DK5       0.061200
     29 H3           1.7100    -0.9080     1.9420 h1         1 DK5       0.032700
     30 HN3         -2.3210    -0.4300    -5.6460 hn         1 DK5       0.175500
     31 H4           1.8120     2.1230     1.7090 h1         1 DK5       0.039700
     32 HO4          2.6240     1.7220     3.6610 ho         1 DK5       0.403000
     33 H5          -0.4360     0.2750     2.5920 h1         1 DK5       0.023700
     34 H6          -0.3710     3.2930     2.2150 h1         1 DK5       0.004200
     35 H6A         -0.2870     2.4790     3.7840 h1         1 DK5       0.004200
     36 HO6         -2.4460     3.0530     3.2500 ho         1 DK5       0.392000
     37 H7          -1.3900    -1.8640    -1.2900 h4         1 DK5       0.128000
     38 H8          -2.1980    -1.7440    -3.6020 ha         1 DK5       0.129000
     39 H13         -2.9610    -0.4040    -7.3480 ha         1 DK5       0.113000
     40 H14         -3.7470    -0.2270    -9.6760 ha         1 DK5       0.107000
     41 H15         -3.2480     1.7900   -10.9990 ha         1 DK5       0.103000
     42 H16         -1.9660     3.6420   -10.0020 ha         1 DK5       0.107000
     43 H17         -1.1730     3.4870    -7.6760 ha         1 DK5       0.113000
     44 N3          -1.8040     0.3240    -5.2380 ns         1 DK5      -0.029400
@<TRIPOS>BOND
     1     1     2 1   
     2     1     3 1   
     3     1    10 1   
     4     1    26 1   
     5     2    13 1   
     6     2    16 1   
     7     3     5 1   
     8     3    27 1   
     9     3    28 1   
    10     4    15 2   
    11     4    16 1   
    12     5     6 1   
    13     5     7 1   
    14     5    29 1   
    15     7     8 1   
    16     7     9 1   
    17     7    31 1   
    18     8    32 1   
    19     9    10 1   
    20     9    11 1   
    21     9    33 1   
    22    11    12 1   
    23    11    34 1   
    24    11    35 1   
    25    12    36 1   
    26    13    14 2   
    27    13    37 1   
    28    14    15 1   
    29    14    38 1   
    30    15    44 1   
    31    16    17 2   
    32    18    19 2   
    33    18    20 1   
    34    18    44 1   
    35    20    21 ar  
    36    20    25 ar  
    37    21    22 ar  
    38    21    39 1   
    39    22    23 ar  
    40    22    40 1   
    41    23    24 ar  
    42    23    41 1   
    43    24    25 ar  
    44    24    42 1   
    45    25    43 1   
    46    30    44 1   
@<TRIPOS>SUBSTRUCTURE
     1 DK5         1 TEMP              0 ****  ****    0 ROOT
