@<TRIPOS>MOLECULE
molecule
   62    64     1     0     0
SMALL
bcc


@<TRIPOS>ATOM
      1 C6           0.0000     0.0000     0.0000 ca         1 DK7       0.159400
      2 C1          -0.0010     0.0010     2.3960 ca         1 DK7      -0.025300
      3 C5           1.3850     0.0000     0.0000 ca         1 DK7      -0.217000
      4 C3           2.0760     0.0000     1.2000 ca         1 DK7       0.159400
      5 C2           1.3810     0.0010     2.3980 ca         1 DK7      -0.183500
      6 F4           3.4260    -0.0000     1.2010 f          1 DK7      -0.135400
      7 F7          -0.6750    -0.0070    -1.1700 f          1 DK7      -0.135400
      8 C8          -0.6910     0.0010     1.1990 ca         1 DK7      -0.183500
      9 C9          -0.7550     0.0020     3.7010 c3         1 DK7      -0.065100
     10 C10         -1.0090     1.4450     4.1420 c3         1 DK7       0.129700
     11 C12         -1.8810     1.4480     5.4000 c3         1 DK7       0.128100
     12 O14         -3.1280     0.8090     5.1160 oh         1 DK7      -0.606800
     13 C15         -2.1360     2.8900     5.8400 c3         1 DK7       0.117500
     14 N17         -0.8540     3.5480     6.1320 n7         1 DK7      -0.809200
     15 C18         -1.0690     4.9280     6.5920 c3         1 DK7       0.139800
     16 C19         -1.9480     4.9110     7.8450 c3         1 DK7       0.290900
     17 O21         -1.2670     4.2210     8.8950 os         1 DK7      -0.454600
     18 C22         -1.9550     4.2460    10.1480 c3         1 DK7       0.142400
     19 C23         -1.1390     3.4820    11.1930 c3         1 DK7      -0.069700
     20 C24         -1.8120     3.6140    12.5610 c3         1 DK7      -0.073900
     21 C25         -0.9960     2.8490    13.6050 c3         1 DK7      -0.078900
     22 C26         -0.9210     1.3720    13.2140 c3         1 DK7      -0.081400
     23 C27         -0.2490     1.2410    11.8460 c3         1 DK7      -0.078900
     24 C28         -1.0650     2.0050    10.8000 c3         1 DK7      -0.073900
     25 O29         -3.1760     4.2400     7.5510 os         1 DK7      -0.434600
     26 C30         -3.0040     2.8940     7.1010 c3         1 DK7       0.101400
     27 N31          0.2690     2.0990     4.4330 ns         1 DK7      -0.548900
     28 C32          1.0770     1.6040     5.3900 c          1 DK7       0.662100
     29 C33          2.3910     2.2790     5.6890 c3         1 DK7      -0.166100
     30 O34          0.7470     0.6170     6.0120 o          1 DK7      -0.645100
     31 H1           1.9270    -0.0010    -0.9380 ha         1 DK7       0.159000
     32 H2           1.9220     0.0010     3.3370 ha         1 DK7       0.153000
     33 H3          -1.7750     0.0010     1.1990 ha         1 DK7       0.153000
     34 H4          -0.1700    -0.5090     4.4560 hc         1 DK7       0.080700
     35 H5          -1.7010    -0.5090     3.5710 hc         1 DK7       0.080700
     36 H6          -1.5170     1.9810     3.3490 h1         1 DK7       0.072700
     37 H7          -1.3730     0.9120     6.1930 h1         1 DK7       0.076700
     38 H8          -3.2660     0.1040     5.7260 ho         1 DK7       0.409000
     39 H9          -2.6450     3.4300     5.0510 h1         1 DK7       0.082700
     40 H10         -0.3680     3.0330     6.8400 hn         1 DK7       0.370800
     41 H12         -1.5640     5.4940     5.8120 h1         1 DK7       0.070200
     42 H13         -0.1150     5.3830     6.8270 h1         1 DK7       0.070200
     43 H14         -2.1580     5.9290     8.1510 h2         1 DK7       0.074700
     44 H15         -2.0820     5.2730    10.4690 h1         1 DK7       0.032700
     45 H16         -2.9260     3.7790    10.0360 h1         1 DK7       0.032700
     46 H17         -0.1370     3.8900    11.2450 hc         1 DK7       0.061700
     47 H18         -2.8120     3.1990    12.5110 hc         1 DK7       0.044200
     48 H19         -1.8620     4.6600    12.8380 hc         1 DK7       0.044200
     49 H20          0.0050     3.2600    13.6510 hc         1 DK7       0.041950
     50 H21         -1.4740     2.9410    14.5730 hc         1 DK7       0.041950
     51 H22         -0.3410     0.8330    13.9530 hc         1 DK7       0.040700
     52 H23         -1.9220     0.9620    13.1630 hc         1 DK7       0.040700
     53 H24          0.7510     1.6550    11.8950 hc         1 DK7       0.041950
     54 H25         -0.1990     0.1950    11.5690 hc         1 DK7       0.041950
     55 H26         -0.5860     1.9130     9.8330 hc         1 DK7       0.044200
     56 H27         -2.0660     1.5940    10.7540 hc         1 DK7       0.044200
     57 H28         -3.9710     2.4630     6.8750 h1         1 DK7       0.060700
     58 H29         -2.5160     2.3150     7.8760 h1         1 DK7       0.060700
     59 H30          0.5560     2.8950     3.8980 hn         1 DK7       0.326500
     60 H31          2.3860     2.6440     6.7090 hc         1 DK7       0.060367
     61 H32          3.1990     1.5670     5.5650 hc         1 DK7       0.060367
     62 H33          2.5340     3.1090     5.0080 hc         1 DK7       0.060367
@<TRIPOS>BOND
     1     6     4 1
     2     3     4 ar
     3     3     1 ar
     4     4     5 ar
     5     7     1 1
     6     1     8 ar
     7     5     2 ar
     8     8     2 ar
     9    30    28 2
    10     2     9 1
    11    29    28 1
    12    28    27 1
    13     9    10 1
    14    27    10 1
    15    10    11 1
    16    22    23 1
    17    22    21 1
    18    26    25 1
    19    26    13 1
    20    23    24 1
    21    24    19 1
    22    21    20 1
    23    20    19 1
    24    25    16 1
    25    11    12 1
    26    11    13 1
    27    18    19 1
    28    18    17 1
    29    13    14 1
    30    16    17 1
    31    16    15 1
    32    14    15 1
    33     3    31 1
    34     5    32 1
    35     8    33 1
    36     9    34 1
    37     9    35 1
    38    10    36 1
    39    11    37 1
    40    12    38 1
    41    13    39 1
    42    14    40 1
    43    15    41 1
    44    15    42 1
    45    16    43 1
    46    18    44 1
    47    18    45 1
    48    19    46 1
    49    20    47 1
    50    20    48 1
    51    21    49 1
    52    21    50 1
    53    22    51 1
    54    22    52 1
    55    23    53 1
    56    23    54 1
    57    24    55 1
    58    24    56 1
    59    26    57 1
    60    26    58 1
    61    27    59 1
    62    29    60 1
    63    29    61 1
    64    29    62 1
@<TRIPOS>SUBSTRUCTURE
     1 DK7         1 TEMP              0 ****  ****    0 ROOT
