@<TRIPOS>MOLECULE
molecule
   31    30     1     0     0
SMALL
bcc


@<TRIPOS>ATOM
      1 C1           0.0000     0.0000     0.0000 c          1 DKA       0.890600
      2 O1           1.2080     0.0000     0.0000 o          1 DKA      -0.858300
      3 C2          -0.7540     0.0000     1.3040 c3         1 DKA      -0.182400
      4 C3           0.2400     0.0020     2.4680 c3         1 DKA      -0.063400
      5 C4          -0.5240     0.0030     3.7930 c3         1 DKA      -0.088400
      6 C5           0.4700     0.0050     4.9560 c3         1 DKA      -0.081400
      7 C6          -0.2960     0.0050     6.2810 c3         1 DKA      -0.083400
      8 C7           0.6990     0.0070     7.4430 c3         1 DKA      -0.082400
      9 C8          -0.0670     0.0080     8.7680 c3         1 DKA      -0.082400
     10 C9           0.9270     0.0100     9.9320 c3         1 DKA      -0.084400
     11 C10          0.1620     0.0110    11.2570 c3         1 DKA      -0.092100
     12 O2          -0.6710     0.0030    -1.1630 o          1 DKA      -0.858300
     13 H21         -1.3760    -0.8850     1.3620 hc         1 DKA       0.026700
     14 H22         -1.3780     0.8840     1.3610 hc         1 DKA       0.026700
     15 H31          0.8630     0.8870     2.4100 hc         1 DKA       0.044700
     16 H32          0.8640    -0.8820     2.4120 hc         1 DKA       0.044700
     17 H41         -1.1470    -0.8820     3.8510 hc         1 DKA       0.028700
     18 H42         -1.1480     0.8870     3.8490 hc         1 DKA       0.028700
     19 H51          1.0930    -0.8790     4.8990 hc         1 DKA       0.038700
     20 H52          1.0910     0.8900     4.8980 hc         1 DKA       0.038700
     21 H61         -0.9180    -0.8800     6.3390 hc         1 DKA       0.035700
     22 H62         -0.9200     0.8890     6.3370 hc         1 DKA       0.035700
     23 H71          1.3220    -0.8780     7.3870 hc         1 DKA       0.039700
     24 H72          1.3210     0.8920     7.3850 hc         1 DKA       0.039700
     25 H81         -0.6890    -0.8770     8.8260 hc         1 DKA       0.038700
     26 H82         -0.6910     0.8920     8.8240 hc         1 DKA       0.038700
     27 H91          1.5500    -0.8750     9.8760 hc         1 DKA       0.038700
     28 H92          1.5490     0.8940     9.8740 hc         1 DKA       0.038700
     29 H101         0.8660     0.0120    12.0800 hc         1 DKA       0.028700
     30 H102        -0.4610     0.8950    11.3130 hc         1 DKA       0.028700
     31 H103        -0.4600    -0.8740    11.3150 hc         1 DKA       0.028700
@<TRIPOS>BOND
     1     1     2 1
     2     1     3 1
     3     1    12 1
     4     3     4 1
     5     3    13 1
     6     3    14 1
     7     4     5 1
     8     4    15 1
     9     4    16 1
    10     5     6 1
    11     5    17 1
    12     5    18 1
    13     6     7 1
    14     6    19 1
    15     6    20 1
    16     7     8 1
    17     7    21 1
    18     7    22 1
    19     8     9 1
    20     8    23 1
    21     8    24 1
    22     9    10 1
    23     9    25 1
    24     9    26 1
    25    10    11 1
    26    10    27 1
    27    10    28 1
    28    11    29 1
    29    11    30 1
    30    11    31 1
@<TRIPOS>SUBSTRUCTURE
     1 DKA         1 TEMP              0 ****  ****    0 ROOT
