@<TRIPOS>MOLECULE
DKA
   31    30     1     0     0
SMALL
bcc


@<TRIPOS>ATOM
      1 C1          0.0100    0.0000   -0.0560 c         1 DKA      0.907600
      2 O1          1.2750   -0.0020   -0.0710 o         1 DKA     -0.854800
      3 C2         -0.7270    0.0010    1.2940 c3        1 DKA     -0.193400
      4 C3          0.2220    0.0030    2.4660 c3        1 DKA     -0.062400
      5 C4         -0.5140    0.0030    3.7890 c3        1 DKA     -0.079400
      6 C5          0.4470    0.0050    4.9590 c3        1 DKA     -0.078400
      7 C6         -0.2880    0.0050    6.2820 c3        1 DKA     -0.078400
      8 C7          0.6760    0.0070    7.4500 c3        1 DKA     -0.079400
      9 C8         -0.0590    0.0080    8.7730 c3        1 DKA     -0.078400
     10 C9          0.9050    0.0090    9.9410 c3        1 DKA     -0.080400
     11 C10         0.1780    0.0110   11.2610 c3        1 DKA     -0.091100
     12 O2         -0.7040    0.0010   -1.1020 o         1 DKA     -0.854800
     13 H21        -1.3870   -0.9020    1.3320 hc        1 DKA      0.018700
     14 H22        -1.3880    0.9030    1.3300 hc        1 DKA      0.018700
     15 H31         0.8910   -0.8960    2.3980 hc        1 DKA      0.044700
     16 H32         0.8890    0.9020    2.3970 hc        1 DKA      0.044700
     17 H41        -1.1780   -0.8990    3.8510 hc        1 DKA      0.024700
     18 H42        -1.1790    0.9040    3.8500 hc        1 DKA      0.024700
     19 H51         1.1110    0.9070    4.8960 hc        1 DKA      0.036700
     20 H52         1.1120   -0.8970    4.8980 hc        1 DKA      0.036700
     21 H61        -0.9510   -0.8970    6.3440 hc        1 DKA      0.033700
     22 H62        -0.9520    0.9070    6.3430 hc        1 DKA      0.033700
     23 H71         1.3400   -0.8950    7.3890 hc        1 DKA      0.037700
     24 H72         1.3390    0.9100    7.3870 hc        1 DKA      0.037700
     25 H81        -0.7230    0.9100    8.8340 hc        1 DKA      0.036700
     26 H82        -0.7220   -0.8950    8.8350 hc        1 DKA      0.036700
     27 H91         1.5690    0.9120    9.8760 hc        1 DKA      0.036700
     28 H92         1.5690   -0.8930    9.8770 hc        1 DKA      0.036700
     29 H101       -0.4710    0.9150   11.3520 hc        1 DKA      0.028033
     30 H102       -0.4700   -0.8940   11.3540 hc        1 DKA      0.028033
     31 H103        0.9060    0.0120   12.1070 hc        1 DKA      0.028033
@<TRIPOS>BOND
     1    1    2 1   
     2    1    3 1   
     3    1   12 1   
     4    3    4 1   
     5    3   13 1   
     6    3   14 1   
     7    4    5 1   
     8    4   15 1   
     9    4   16 1   
    10    5    6 1   
    11    5   17 1   
    12    5   18 1   
    13    6    7 1   
    14    6   19 1   
    15    6   20 1   
    16    7    8 1   
    17    7   21 1   
    18    7   22 1   
    19    8    9 1   
    20    8   23 1   
    21    8   24 1   
    22    9   10 1   
    23    9   25 1   
    24    9   26 1   
    25   10   11 1   
    26   10   27 1   
    27   10   28 1   
    28   11   29 1   
    29   11   30 1   
    30   11   31 1   
@<TRIPOS>SUBSTRUCTURE
     1 DKA         1 TEMP              0 ****  ****    0 ROOT
