@<TRIPOS>MOLECULE
DKD
   47    49     1     0     0
SMALL
bcc


@<TRIPOS>ATOM
      1 CAK         0.2680    0.3690   -0.0490 ca        1 DKD     -0.131500
      2 CAG         1.6350    0.5400    0.1640 ca        1 DKD     -0.137500
      3 CAD         2.1630    0.4450    1.4500 ca        1 DKD     -0.155000
      4 CAH         1.3150    0.1770    2.5260 ca        1 DKD     -0.137500
      5 CAL        -0.0510    0.0060    2.3170 ca        1 DKD     -0.131500
      6 CAX        -0.5900    0.1020    1.0260 ca        1 DKD     -0.049300
      7 CAS        -2.0530   -0.0560    0.8110 c3        1 DKD     -0.045100
      8 CAZ        -2.5710   -1.4470    1.1710 c3        1 DKD      0.016100
      9 CAU        -4.0060   -1.3570    1.7770 c         1 DKD      0.905600
     10 OAB        -4.2540   -2.1420    2.7360 o         1 DKD     -0.821800
     11 OAA        -4.7990   -0.4930    1.3250 o         1 DKD     -0.821800
     12 OAT        -2.5680   -2.1790   -0.0770 os        1 DKD     -0.327900
     13 CAY        -2.4270   -3.5400    0.0010 ca        1 DKD      0.159100
     14 CAP        -1.9630   -4.1650   -1.1750 ca        1 DKD     -0.187500
     15 CAN        -1.8130   -5.5460   -1.2040 ca        1 DKD     -0.105000
     16 CAO        -2.7470   -4.3130    1.1300 ca        1 DKD     -0.187500
     17 CAM        -2.5840   -5.6920    1.0780 ca        1 DKD     -0.105000
     18 CAW        -2.1120   -6.3230   -0.0800 ca        1 DKD     -0.153300
     19 CAR        -1.9500   -7.8010   -0.1150 c3        1 DKD     -0.013100
     20 CAQ        -0.7240   -8.2430    0.6690 c3        1 DKD     -0.042100
     21 CAV        -0.5440   -9.7200    0.6280 ca        1 DKD     -0.063300
     22 CAI        -0.0780  -10.3420   -0.5370 ca        1 DKD     -0.129500
     23 CAE         0.0990  -11.7230   -0.5780 ca        1 DKD     -0.132500
     24 CAC        -0.1880  -12.4990    0.5450 ca        1 DKD     -0.144000
     25 CAF        -0.6530  -11.8880    1.7080 ca        1 DKD     -0.132500
     26 CAJ        -0.8310  -10.5060    1.7510 ca        1 DKD     -0.129500
     27 HAK        -0.1430    0.4370   -1.0670 ha        1 DKD      0.137000
     28 HAG         2.2990    0.7470   -0.6880 ha        1 DKD      0.115500
     29 HAD         3.2400    0.5790    1.6170 ha        1 DKD      0.113000
     30 HAH         1.7270    0.0970    3.5420 ha        1 DKD      0.115500
     31 HAL        -0.7210   -0.2100    3.1630 ha        1 DKD      0.137000
     32 HAS        -2.6080    0.6860    1.4480 hc        1 DKD      0.075200
     33 HASA       -2.3220    0.1590   -0.2580 hc        1 DKD      0.075200
     34 HAZ        -1.8890   -1.9550    1.9040 h1        1 DKD      0.042700
     35 HAP        -1.7340   -3.5510   -2.0550 ha        1 DKD      0.170000
     36 HAN        -1.4540   -6.0310   -2.1240 ha        1 DKD      0.114500
     37 HAO        -3.1610   -3.8200    2.0330 ha        1 DKD      0.170000
     38 HAM        -2.8400   -6.2990    1.9590 ha        1 DKD      0.114500
     39 HAR        -1.8550   -8.1570   -1.1760 hc        1 DKD      0.038700
     40 HARA       -2.8620   -8.2890    0.3200 hc        1 DKD      0.038700
     41 HAQ         0.1880   -7.7460    0.2410 hc        1 DKD      0.054700
     42 HAQA       -0.8240   -7.8930    1.7320 hc        1 DKD      0.054700
     43 HAI         0.1470   -9.7290   -1.4240 ha        1 DKD      0.133500
     44 HAE         0.4650  -12.2010   -1.4980 ha        1 DKD      0.123500
     45 HAC        -0.0480  -13.5890    0.5120 ha        1 DKD      0.121000
     46 HAF        -0.8810  -12.4960    2.5950 ha        1 DKD      0.123500
     47 HAJ        -1.1990  -10.0270    2.6710 ha        1 DKD      0.133500
@<TRIPOS>BOND
     1    1    2 ar  
     2    1    6 ar  
     3    1   27 1   
     4    2    3 ar  
     5    2   28 1   
     6    3    4 ar  
     7    3   29 1   
     8    4    5 ar  
     9    4   30 1   
    10    5    6 ar  
    11    5   31 1   
    12    6    7 1   
    13    7    8 1   
    14    7   32 1   
    15    7   33 1   
    16    8    9 1   
    17    8   12 1   
    18    8   34 1   
    19    9   10 1   
    20    9   11 1   
    21   12   13 1   
    22   13   14 ar  
    23   13   16 ar  
    24   14   15 ar  
    25   14   35 1   
    26   15   18 ar  
    27   15   36 1   
    28   16   17 ar  
    29   16   37 1   
    30   17   18 ar  
    31   17   38 1   
    32   18   19 1   
    33   19   20 1   
    34   19   39 1   
    35   19   40 1   
    36   20   21 1   
    37   20   41 1   
    38   20   42 1   
    39   21   22 ar  
    40   21   26 ar  
    41   22   23 ar  
    42   22   43 1   
    43   23   24 ar  
    44   23   44 1   
    45   24   25 ar  
    46   24   45 1   
    47   25   26 ar  
    48   25   46 1   
    49   26   47 1   
@<TRIPOS>SUBSTRUCTURE
     1 DKD         1 TEMP              0 ****  ****    0 ROOT
