@<TRIPOS>MOLECULE
molecule
   47    49     1     0     0
SMALL
bcc


@<TRIPOS>ATOM
      1 CAK          0.0000     0.0000     0.0000 ca         1 DKD      -0.121500
      2 CAG          1.3820     0.0000     0.0000 ca         1 DKD      -0.138000
      3 CAD          2.0730     0.0000     1.1980 ca         1 DKD      -0.151000
      4 CAH          1.3820    -0.0010     2.3950 ca         1 DKD      -0.138000
      5 CAL         -0.0000    -0.0010     2.3940 ca         1 DKD      -0.121500
      6 CAX         -0.6910    -0.0020     1.1970 ca         1 DKD      -0.064300
      7 CAS         -2.1980    -0.0020     1.1960 c3         1 DKD      -0.020100
      8 CAZ         -2.7080    -1.4440     1.1950 c3         1 DKD       0.033100
      9 CAU         -4.2100    -1.4470     1.3180 c          1 DKD       0.868600
     10 OAB         -4.8900    -1.8620     0.4090 o          1 DKD      -0.825800
     11 OAA         -4.7920    -0.9880     2.4360 o          1 DKD      -0.825800
     12 OAT         -2.3290    -2.0820    -0.0270 os         1 DKD      -0.314900
     13 CAY         -2.2310    -3.4370    -0.0110 ca         1 DKD       0.195100
     14 CAP         -1.7610    -4.1140    -1.1280 ca         1 DKD      -0.191000
     15 CAN         -1.6620    -5.4910    -1.1080 ca         1 DKD      -0.092500
     16 CAO         -2.5950    -4.1470     1.1250 ca         1 DKD      -0.191000
     17 CAM         -2.4940    -5.5250     1.1390 ca         1 DKD      -0.092500
     18 CAW         -2.0310    -6.1970     0.0230 ca         1 DKD      -0.160300
     19 CAR         -1.9220    -7.7000     0.0400 c3         1 DKD      -0.016100
     20 CAQ         -0.5380    -8.1050     0.5510 c3         1 DKD      -0.037100
     21 CAV         -0.4300    -9.6080     0.5680 ca         1 DKD      -0.071300
     22 CAI          0.0390   -10.2800    -0.5450 ca         1 DKD      -0.126500
     23 CAE          0.1380   -11.6590    -0.5290 ca         1 DKD      -0.130500
     24 CAC         -0.2300   -12.3650     0.6010 ca         1 DKD      -0.142000
     25 CAF         -0.6980   -11.6930     1.7140 ca         1 DKD      -0.130500
     26 CAJ         -0.7930   -10.3130     1.7000 ca         1 DKD      -0.126500
     27 HAK         -0.5420    -0.0000    -0.9380 ha         1 DKD       0.136500
     28 HAG          1.9240     0.0010    -0.9380 ha         1 DKD       0.114500
     29 HAD          3.1560    -0.0000     1.1980 ha         1 DKD       0.111000
     30 HAH          1.9230    -0.0010     3.3330 ha         1 DKD       0.114500
     31 HAL         -0.5430    -0.0020     3.3320 ha         1 DKD       0.136500
     32 HAS         -2.5590     0.5080     2.0810 hc         1 DKD       0.070200
     33 HASA        -2.5580     0.5100     0.3110 hc         1 DKD       0.070200
     34 HAZ         -2.2760    -1.9810     2.0310 h1         1 DKD       0.042700
     35 HAP         -1.4720    -3.5620    -2.0140 ha         1 DKD       0.146000
     36 HAN         -1.2970    -6.0190    -1.9810 ha         1 DKD       0.114500
     37 HAO         -2.9580    -3.6210     1.9990 ha         1 DKD       0.146000
     38 HAM         -2.7810    -6.0790     2.0240 ha         1 DKD       0.114500
     39 HAR         -2.6830    -8.1090     0.6940 hc         1 DKD       0.041700
     40 HARA        -2.0640    -8.0840    -0.9630 hc         1 DKD       0.041700
     41 HAQ         -0.3970    -7.7210     1.5540 hc         1 DKD       0.052200
     42 HAQA         0.2220    -7.6960    -0.1030 hc         1 DKD       0.052200
     43 HAI          0.3280    -9.7260    -1.4310 ha         1 DKD       0.132000
     44 HAE          0.5050   -12.1860    -1.4020 ha         1 DKD       0.121500
     45 HAC         -0.1540   -13.4460     0.6130 ha         1 DKD       0.120000
     46 HAF         -0.9840   -12.2460     2.6000 ha         1 DKD       0.121500
     47 HAJ         -1.1590    -9.7860     2.5730 ha         1 DKD       0.132000
@<TRIPOS>BOND
     1     1     2 ar
     2     1     6 ar
     3     2     3 ar
     4     3     4 ar
     5     4     5 ar
     6     5     6 ar
     7     6     7 1
     8     7     8 1
     9     8     9 1
    10     8    12 1
    11     9    10 1
    12     9    11 1
    13    12    13 1
    14    13    14 ar
    15    13    16 ar
    16    14    15 ar
    17    15    18 ar
    18    16    17 ar
    19    17    18 ar
    20    18    19 1
    21    19    20 1
    22    20    21 1
    23    21    22 ar
    24    21    26 ar
    25    22    23 ar
    26    23    24 ar
    27    24    25 ar
    28    25    26 ar
    29     1    27 1
    30     2    28 1
    31     3    29 1
    32     4    30 1
    33     5    31 1
    34     7    32 1
    35     7    33 1
    36     8    34 1
    37    14    35 1
    38    15    36 1
    39    16    37 1
    40    17    38 1
    41    19    39 1
    42    19    40 1
    43    20    41 1
    44    20    42 1
    45    22    43 1
    46    23    44 1
    47    24    45 1
    48    25    46 1
    49    26    47 1
@<TRIPOS>SUBSTRUCTURE
     1 DKD         1 TEMP              0 ****  ****    0 ROOT
