@<TRIPOS>MOLECULE
molecule
   13    13     1     0     0
SMALL
bcc


@<TRIPOS>ATOM
      1 C7           0.0000     0.0000     0.0000 c3         1 DKG      -0.049800
      2 C4           1.5070     0.0000     0.0000 ca         1 DKG      -0.164600
      3 C5           2.2240     0.0000     1.1900 ca         1 DKG      -0.217300
      4 C3           2.2200    -0.0040    -1.1880 ca         1 DKG       0.345200
      5 N2           3.5400    -0.0040    -1.1610 nb         1 DKG      -0.311000
      6 N1           4.2020     0.0010    -0.0620 nb         1 DKG      -0.319000
      7 C6           3.6060    -0.0000     1.1160 ca         1 DKG       0.349200
      8 H1          -0.3610     0.2950     0.9780 hc         1 DKG       0.051700
      9 H2          -0.3610     0.7000    -0.7440 hc         1 DKG       0.051700
     10 H3          -0.3610    -0.9940    -0.2340 hc         1 DKG       0.051700
     11 H4           1.7160    -0.0010     2.1470 ha         1 DKG       0.146000
     12 H5           1.6970    -0.0080    -2.1360 h4         1 DKG       0.033100
     13 H6           4.1980     0.0020     2.0240 h4         1 DKG       0.033100
@<TRIPOS>BOND
     1     1     2 1
     2     2     4 ar
     3     2     3 ar
     4     4     5 ar
     5     5     6 ar
     6     3     7 ar
     7     6     7 ar
     8     1     8 1
     9     1     9 1
    10     1    10 1
    11     3    11 1
    12     4    12 1
    13     7    13 1
@<TRIPOS>SUBSTRUCTURE
     1 DKG         1 TEMP              0 ****  ****    0 ROOT
