@<TRIPOS>MOLECULE
DKG
   13    13     1     0     0
SMALL
bcc


@<TRIPOS>ATOM
      1 C7         -0.0040    0.0000    0.0010 c3        1 DKG     -0.059800
      2 C4          1.4710    0.0020    0.0210 ca        1 DKG     -0.143600
      3 C5          2.2030    0.0520    1.2160 ca        1 DKG     -0.206300
      4 C3          2.2220   -0.0590   -1.1750 ca        1 DKG      0.322200
      5 N2          3.5860   -0.0720   -1.1770 nb        1 DKG     -0.307000
      6 N1          4.2460   -0.0280   -0.0890 nb        1 DKG     -0.315000
      7 C6          3.6050    0.0340    1.1160 ca        1 DKG      0.329200
      8 H1         -0.3830   -1.0510   -0.0690 hc        1 DKG      0.054367
      9 H2         -0.4190    0.4620    0.9300 hc        1 DKG      0.054367
     10 H3         -0.3900    0.5690   -0.8820 hc        1 DKG      0.054367
     11 H4          1.7040    0.1040    2.1920 ha        1 DKG      0.150000
     12 H5          1.7330   -0.0980   -2.1620 h4        1 DKG      0.033100
     13 H6          4.2530    0.0710    2.0070 h4        1 DKG      0.033100
@<TRIPOS>BOND
     1    1    2 1   
     2    1    8 1   
     3    1    9 1   
     4    1   10 1   
     5    2    3 ar  
     6    2    4 ar  
     7    3    7 ar  
     8    3   11 1   
     9    4    5 ar  
    10    4   12 1   
    11    5    6 ar  
    12    6    7 ar  
    13    7   13 1   
@<TRIPOS>SUBSTRUCTURE
     1 DKG         1 TEMP              0 ****  ****    0 ROOT
