@<TRIPOS>MOLECULE
molecule
   42    44     1     0     0
SMALL
bcc


@<TRIPOS>ATOM
      1 FAF          0.0000     0.0000     0.0000 f          1 DKI      -0.122400
      2 CAU          1.3510     0.0000     0.0000 ca         1 DKI       0.184400
      3 CAI          2.0440     0.0000     1.1990 ca         1 DKI      -0.173000
      4 CAH          3.4260    -0.0010     1.2000 ca         1 DKI      -0.054000
      5 CAJ          4.1220    -0.0090     0.0060 ca         1 DKI      -0.173000
      6 CAV          3.4380    -0.0150    -1.1970 ca         1 DKI       0.184400
      7 FAG          4.1190    -0.0230    -2.3630 f          1 DKI      -0.122400
      8 CAZ          2.0480    -0.0150    -1.2020 ca         1 DKI      -0.064400
      9 NAQ          1.3510    -0.0220    -2.4180 ns         1 DKI      -0.367100
     10 CAS          1.1110    -1.1870    -3.0500 cs         1 DKI       0.520200
     11 SAE          1.5220    -2.6690    -2.2980 s          1 DKI      -0.591400
     12 NBA          0.5480    -1.1860    -4.2750 n          1 DKI      -0.042500
     13 NAP         -0.2510    -0.1760    -4.8340 nc         1 DKI      -0.609800
     14 CAT          0.6470    -2.1620    -5.2210 cc         1 DKI       0.812400
     15 NAA          1.3460    -3.3460    -5.0980 nv         1 DKI      -0.962500
     16 NAO         -0.0460    -1.7770    -6.2700 nd         1 DKI      -0.875000
     17 CAX         -0.5890    -0.5750    -6.0360 cd         1 DKI       0.859900
     18 NAR         -1.3880     0.1380    -6.9290 nu         1 DKI      -0.722300
     19 CAW         -1.8710    -0.4830    -8.0830 ca         1 DKI       0.280600
     20 CAL         -1.8380    -1.8680    -8.1940 ca         1 DKI      -0.184500
     21 CAN         -2.3180    -2.4790    -9.3360 ca         1 DKI       0.000000
     22 CAK         -2.3900     0.2810    -9.1200 ca         1 DKI      -0.184500
     23 CAM         -2.8620    -0.3350   -10.2620 ca         1 DKI       0.000000
     24 CAY         -2.8290    -1.7140   -10.3690 ca         1 DKI      -0.387500
     25 SBB         -3.4380    -2.4980   -11.8250 sy         1 DKI       1.225200
     26 OAC         -2.8060    -3.7700   -11.8720 o          1 DKI      -0.526800
     27 OAD         -3.3800    -1.5120   -12.8480 o          1 DKI      -0.526800
     28 NAB         -5.0480    -2.8030   -11.5860 nz         1 DKI      -0.804500
     29 HAI          1.5010     0.0060     2.1370 ha         1 DKI       0.163000
     30 HAH          3.9640     0.0020     2.1400 ha         1 DKI       0.156000
     31 HAJ          5.2060    -0.0090     0.0120 ha         1 DKI       0.163000
     32 HAQ          1.0210     0.8380    -2.8110 hn         1 DKI       0.353500
     33 HAA1         1.3240    -4.0180    -5.8390 hn         1 DKI       0.478300
     34 HAA2         1.8770    -3.5300    -4.2700 hn         1 DKI       0.478300
     35 HAR         -1.6220     1.0920    -6.7380 hn         1 DKI       0.484800
     36 HAL         -1.4380    -2.4680    -7.3860 ha         1 DKI       0.186000
     37 HAN         -2.2930    -3.5580    -9.4230 ha         1 DKI       0.154500
     38 HAK         -2.4160     1.3610    -9.0370 ha         1 DKI       0.186000
     39 HAM         -3.2650     0.2610   -11.0710 ha         1 DKI       0.154500
     40 HAB1        -5.5290    -1.9420   -11.4180 hn         1 DKI       0.489467
     41 HAB2        -5.4280    -3.2440   -12.3990 hn         1 DKI       0.489467
     42 HAB3        -5.1590    -3.4070   -10.7950 hn         1 DKI       0.489467
@<TRIPOS>BOND
     1     1     2 1
     2     2     3 ar
     3     2     8 ar
     4     3     4 ar
     5     3    29 1
     6     4     5 ar
     7     4    30 1
     8     5     6 ar
     9     5    31 1
    10     6     7 1
    11     6     8 ar
    12     8     9 1
    13     9    10 1
    14     9    32 1
    15    10    11 2
    16    10    12 1
    17    12    13 1
    18    12    14 1
    19    13    17 2
    20    14    15 1
    21    14    16 2
    22    15    33 1
    23    15    34 1
    24    16    17 1
    25    17    18 1
    26    18    19 1
    27    18    35 1
    28    19    20 ar
    29    19    22 ar
    30    20    21 ar
    31    20    36 1
    32    21    24 ar
    33    21    37 1
    34    22    23 ar
    35    22    38 1
    36    23    24 ar
    37    23    39 1
    38    24    25 1
    39    25    26 2
    40    25    27 2
    41    25    28 1
    42    28    40 1
    43    28    41 1
    44    42    28 1
@<TRIPOS>SUBSTRUCTURE
     1 DKI         1 TEMP              0 ****  ****    0 ROOT
