@<TRIPOS>MOLECULE
molecule
   61    62     1     0     0
SMALL
bcc


@<TRIPOS>ATOM
      1 O1           0.0000     0.0000     0.0000 o          1 DKJ      -0.624100
      2 C7           1.2130     0.0000     0.0000 c          1 DKJ       0.656100
      3 O2           2.8310     3.7520    -3.6400 os         1 DKJ      -0.450600
      4 C6           2.3770    -4.1250    -3.7970 ca         1 DKJ       0.160400
      5 C1           1.5240    -3.1060    -1.3700 ca         1 DKJ      -0.183500
      6 N1           0.3040     3.6840    -2.4170 n7         1 DKJ      -0.790200
      7 C5           2.3270    -4.2340    -1.4030 ca         1 DKJ       0.160400
      8 C4           1.1490    -2.4890    -2.5480 ca         1 DKJ      -0.028300
      9 C3           2.7530    -4.7440    -2.6170 ca         1 DKJ      -0.216000
     10 C2           1.5750    -2.9970    -3.7610 ca         1 DKJ      -0.183500
     11 C8           2.0650     2.5450    -3.6780 c3         1 DKJ       0.146400
     12 C9           1.1550     2.4860    -2.4480 c3         1 DKJ       0.119500
     13 C10          1.1230     4.9040    -2.3790 c3         1 DKJ       0.146500
     14 C11          2.0330     4.9390    -3.6100 c3         1 DKJ       0.344900
     15 C12          1.9650     0.0000     1.3060 c3         1 DKJ      -0.169100
     16 C13          1.9780     4.9070    -1.1100 c3         1 DKJ      -0.133100
     17 C14          0.0970     6.4120    -7.0330 c3         1 DKJ      -0.080433
     18 C15          0.2210     3.9230    -7.2150 c3         1 DKJ      -0.080433
     19 C16          1.8160     5.3510    -8.5030 c3         1 DKJ      -0.080433
     20 C17          0.2760    -1.2630    -2.5110 c3         1 DKJ      -0.062100
     21 C19          0.2750     1.2360    -2.5240 c3         1 DKJ       0.134100
     22 C20          1.1550    -0.0120    -2.4350 c3         1 DKJ       0.110700
     23 C21          1.0380     5.2170    -7.1920 c3         1 DKJ      -0.068000
     24 N2           1.8870    -0.0060    -1.1670 ns         1 DKJ      -0.580900
     25 O3          -0.4390     1.2300    -3.7610 oh         1 DKJ      -0.592800
     26 O4           1.2350     5.0080    -4.7930 os         1 DKJ      -0.424600
     27 F1           2.6940    -4.8360    -0.2500 f          1 DKJ      -0.134900
     28 F2           2.7980    -4.6180    -4.9820 f          1 DKJ      -0.134900
     29 H1           1.1900    -2.7060    -0.4190 ha         1 DKJ       0.152500
     30 H33         -0.2870     3.6530    -1.6100 hn         1 DKJ       0.354800
     31 H3           3.3810    -5.6260    -2.6440 ha         1 DKJ       0.160000
     32 H2           1.2800    -2.5130    -4.6850 ha         1 DKJ       0.152500
     33 H5           1.4600     2.5300    -4.5760 h1         1 DKJ       0.066200
     34 H4           2.7350     1.6940    -3.6730 h1         1 DKJ       0.066200
     35 H6           1.7620     2.4530    -1.5520 h1         1 DKJ       0.034700
     36 H7           0.4750     5.7720    -2.3860 h1         1 DKJ       0.079700
     37 H8           2.6800     5.8060    -3.5540 h2         1 DKJ       0.069700
     38 H10          1.8520     0.9630     1.7880 hc         1 DKJ       0.062700
     39 H9           3.0160    -0.1880     1.1170 hc         1 DKJ       0.062700
     40 H11          1.5700    -0.7750     1.9500 hc         1 DKJ       0.062700
     41 H12          2.2730     5.9230    -0.8750 hc         1 DKJ       0.044033
     42 H13          2.8630     4.3020    -1.2700 hc         1 DKJ       0.044033
     43 H14          1.4050     4.4980    -0.2870 hc         1 DKJ       0.044033
     44 H17         -0.4860     6.5360    -7.9380 hc         1 DKJ       0.036811
     45 H15          0.6780     7.3080    -6.8530 hc         1 DKJ       0.036811
     46 H16         -0.5680     6.2390    -6.1960 hc         1 DKJ       0.036811
     47 H20          0.8900     3.0720    -7.1870 hc         1 DKJ       0.036811
     48 H19         -0.4350     3.8950    -6.3530 hc         1 DKJ       0.036811
     49 H18         -0.3720     3.8870    -8.1210 hc         1 DKJ       0.036811
     50 H23          2.4810     4.5040    -8.6160 hc         1 DKJ       0.036811
     51 H21          2.3960     6.2660    -8.4870 hc         1 DKJ       0.036811
     52 H22          1.1220     5.3780    -9.3340 hc         1 DKJ       0.036811
     53 H25         -0.3680    -1.3040    -1.6410 hc         1 DKJ       0.082200
     54 H24         -0.3310    -1.2240    -3.4080 hc         1 DKJ       0.082200
     55 H26          2.6520     4.3030    -6.1060 h1         1 DKJ       0.028200
     56 H27          2.5780     6.0640    -5.9550 h1         1 DKJ       0.028200
     57 H28         -0.4290     1.2400    -1.7000 h1         1 DKJ       0.074700
     58 H29          1.8590    -0.0160    -3.2590 h1         1 DKJ       0.073700
     59 H31          2.8880    -0.0370    -1.1670 hn         1 DKJ       0.322500
     60 H32         -1.3650     1.1900    -3.5890 ho         1 DKJ       0.411000
     61 C18          1.9910     5.1550    -5.9970 c3         1 DKJ       0.145400
@<TRIPOS>BOND
     1    27     7 1
     2     9     7 ar
     3     9     4 ar
     4     7     5 ar
     5    28     4 1
     6     4    10 ar
     7     5     8 ar
     8    10     8 ar
     9     8    20 1
    10    20    22 1
    11     1     2 2
    12    22    24 1
    13    22    21 1
    14     2    15 1
    15     2    24 1
    16    19    23 1
    17    25    21 1
    18    17    23 1
    19    21    12 1
    20    23    18 1
    21    23    61 1
    22    11    12 1
    23    11     3 1
    24    12     6 1
    25    61    26 1
    26     3    14 1
    27    26    14 1
    28     6    13 1
    29    14    13 1
    30    13    16 1
    31     5    29 1
    32     6    30 1
    33     9    31 1
    34    10    32 1
    35    11    33 1
    36    11    34 1
    37    12    35 1
    38    13    36 1
    39    14    37 1
    40    15    38 1
    41    15    39 1
    42    15    40 1
    43    16    41 1
    44    16    42 1
    45    16    43 1
    46    17    44 1
    47    17    45 1
    48    17    46 1
    49    18    47 1
    50    18    48 1
    51    18    49 1
    52    19    50 1
    53    19    51 1
    54    19    52 1
    55    20    53 1
    56    20    54 1
    57    61    55 1
    58    61    56 1
    59    21    57 1
    60    22    58 1
    61    24    59 1
    62    25    60 1
@<TRIPOS>SUBSTRUCTURE
     1 DKJ         1 TEMP              0 ****  ****    0 ROOT
