@<TRIPOS>MOLECULE
molecule
   52    53     1     0     0
SMALL
bcc


@<TRIPOS>ATOM
      1 C1           0.0000     0.0000     0.0000 c2         1 DKK       0.692100
      2 O5           0.0210     0.0140    -2.4170 os         1 DKK      -0.118100
      3 C7           0.0490     0.0280    -4.8340 c3         1 DKK       0.038000
      4 C9           1.6430    -1.4420    -5.9450 c          1 DKK       0.680100
      5 C11          2.4220    -2.7290    -6.0260 c3         1 DKK      -0.145100
      6 C12          3.2770    -2.7230    -7.2670 ca         1 DKK      -0.042300
      7 C13          4.5780    -2.2130    -7.2190 ca         1 DKK      -0.035000
      8 C14          5.3660    -2.2090    -8.3720 ca         1 DKK      -0.072000
      9 C15          4.8620    -2.7080    -9.5530 ca         1 DKK      -0.236000
     10 C16          3.5680    -3.2140    -9.6000 ca         1 DKK       0.197600
     11 C19          5.1000    -1.6940    -5.9900 cg         1 DKK       0.256800
     12 C22          3.8900    -3.7130   -12.0030 c3         1 DKK       0.189800
     13 C30          5.5350    -5.4860   -16.7740 ca         1 DKK      -0.103000
     14 C31          4.3240    -5.0270   -15.9160 ca         1 DKK      -0.202300
     15 N2           1.3030     0.0000     0.0000 n2         1 DKK      -0.756100
     16 N3          -0.6880     0.0000     1.1900 nz         1 DKK      -0.783600
     17 N4          -0.6870     0.0080    -1.1910 nu         1 DKK      -0.707700
     18 C6          -0.8180     0.0210    -3.5730 c3         1 DKK       0.073400
     19 N8           0.8060    -1.2240    -4.9120 ns         1 DKK      -0.630900
     20 O10          1.7700    -0.6010    -6.8100 o          1 DKK      -0.578100
     21 C17          2.7790    -3.2260    -8.4510 ca         1 DKK       0.053900
     22 F18          1.5240    -3.7230    -8.4980 f          1 DKK      -0.141900
     23 N20          5.4980    -1.2710    -5.0140 n1         1 DKK      -0.388800
     24 N21          3.0600    -3.7180   -10.7950 nu         1 DKK      -0.803600
     25 C23          3.4130    -4.2580   -13.0180 c3         1 DKK       0.329300
     26 F24          2.4840    -5.1320   -12.6780 f          1 DKK      -0.258800
     27 F25          2.3510    -3.0490   -13.3840 f          1 DKK      -0.258800
     28 C26          4.7470    -4.8300   -14.3950 ca         1 DKK       0.440600
     29 N27          5.9030    -5.0130   -13.9150 nb         1 DKK      -0.698000
     30 C28          7.0650    -5.5010   -14.9800 ca         1 DKK       0.439200
     31 C29          6.5560    -5.6070   -16.1410 ca         1 DKK      -0.222300
     32 H7          -0.1610     0.1550    -5.8890 h1         1 DKK       0.136200
     33 H7A          1.0420     0.2670    -4.4730 h1         1 DKK       0.136200
     34 H11          3.3420    -2.8950    -5.4780 hc         1 DKK       0.096200
     35 H11A         1.8520    -3.6490    -6.0830 hc         1 DKK       0.096200
     36 H14          6.3590    -2.1470    -8.8020 ha         1 DKK       0.172000
     37 H15          5.6300    -2.5810   -10.3070 ha         1 DKK       0.151000
     38 H22          4.6040    -2.9010   -12.0820 h1         1 DKK       0.084200
     39 H22A         4.4510    -4.4990   -11.5120 h1         1 DKK       0.084200
     40 HN2          1.6630    -0.0720    -0.9310 hn         1 DKK       0.486400
     41 HN3          0.1760    -0.2060     1.6520 hn         1 DKK       0.486800
     42 HN3A        -1.3170    -0.7320     1.4530 hn         1 DKK       0.486800
     43 HN4         -1.6240     0.3510    -1.2660 hn         1 DKK       0.453800
     44 H6          -1.5610    -0.7340    -3.8000 h1         1 DKK       0.071700
     45 H6A         -1.4410     0.8840    -3.7770 h1         1 DKK       0.071700
     46 HN8          0.6380    -1.9670    -4.2630 hn         1 DKK       0.300500
     47 HN21         2.2170    -4.2090   -10.5730 hn         1 DKK       0.464800
     48 H28          8.0290    -5.8870   -14.6710 h4         1 DKK       0.060100
     49 H29          7.3570    -5.7650   -16.8530 ha         1 DKK       0.120000
     50 H30          5.0590    -5.6360   -17.7360 ha         1 DKK       0.172000
     51 H33         -1.1920     0.7890     1.5440 hn         1 DKK       0.486800
     52 H31          3.3520    -5.0050   -16.3930 ha         1 DKK       0.174000
@<TRIPOS>BOND
     1     1    15 2
     2     1    16 1
     3     1    17 1
     4     2    17 1
     5     2    18 1
     6     3    18 1
     7     3    19 1
     8     4     5 1
     9     4    19 1
    10     4    20 2
    11     5     6 1
    12     6     7 ar
    13     6    21 ar
    14     7     8 ar
    15     7    11 1
    16     8     9 ar
    17     9    10 ar
    18    10    21 ar
    19    10    24 1
    20    11    23 3
    21    12    24 1
    22    12    25 1
    23    13    14 ar
    24    13    31 ar
    25    14    28 ar
    26    21    22 1
    27    25    26 1
    28    25    27 1
    29    25    28 1
    30    28    29 ar
    31    29    30 ar
    32    30    31 ar
    33     3    32 1
    34     3    33 1
    35     5    34 1
    36     5    35 1
    37     8    36 1
    38     9    37 1
    39    12    38 1
    40    12    39 1
    41    13    50 1
    42    14    52 1
    43    15    40 1
    44    16    41 1
    45    16    42 1
    46    17    43 1
    47    18    44 1
    48    18    45 1
    49    19    46 1
    50    24    47 1
    51    30    48 1
    52    31    49 1
    53    51    16 1
@<TRIPOS>SUBSTRUCTURE
     1 DKK         1 TEMP              0 ****  ****    0 ROOT
