@<TRIPOS>MOLECULE
DKK
   51    52     1     0     0
SMALL
bcc


@<TRIPOS>ATOM
      1 C1          1.6090    0.0790   -2.1920 c2        1 DKK      0.133000
      2 O5         -0.7120   -0.2960   -2.5140 os        1 DKK     -0.258000
      3 C7         -1.2520   -0.8430   -4.7610 c2        1 DKK     -0.748000
      4 C9          0.5010   -0.5870   -6.4470 c2        1 DKK      0.212000
      5 C11         0.8960   -2.0230   -6.2300 c3        1 DKK     -0.144000
      6 C12         2.0680   -2.4420   -7.0460 ca        1 DKK     -0.024000
      7 C13         3.3720   -2.3860   -6.5220 ca        1 DKK     -0.047000
      8 C14         4.4600   -2.7900   -7.3030 ca        1 DKK     -0.057000
      9 C15         4.2750   -3.2660   -8.5920 ca        1 DKK     -0.179000
     10 C16         2.9830   -3.3770   -9.1500 ca        1 DKK      0.093000
     11 C19         3.6080   -1.9200   -5.2010 c1        1 DKK     -0.064000
     12 C22         3.7690   -4.3300  -11.2930 c3        1 DKK     -0.050000
     13 C30         3.0640   -2.4040  -15.6910 c2        1 DKK     -0.093000
     14 C31         3.9420   -2.7650  -14.6640 c2        1 DKK     -0.141000
     15 N2          1.7280    0.6200   -3.3800 n2        1 DKK     -0.394000
     16 N3          2.6770   -0.0280   -1.2530 n3        1 DKK     -0.368000
     17 N4          0.3300   -0.4850   -1.7020 n3        1 DKK     -0.106000
     18 C6         -0.9970   -1.4130   -3.4490 c3        1 DKK      0.121000
     19 N8         -0.3310    0.0370   -5.3570 n4        1 DKK      0.085000
     20 O10         0.7480    0.0970   -7.4420 o         1 DKK     -0.279000
     21 C17         1.8760   -2.9380   -8.3480 ca        1 DKK      0.037000
     22 F18         0.6180   -3.0040   -8.8560 f         1 DKK     -0.100000
     23 N20         3.8220   -1.5410   -4.1210 n1        1 DKK     -0.080000
     24 N21         2.7340   -3.9590  -10.3910 nh        1 DKK     -0.285000
     25 C23         4.3970   -3.1910  -12.1910 c3        1 DKK      0.278000
     26 F24         4.7590   -2.0800  -11.4600 f         1 DKK     -0.159500
     27 F25         5.6260   -3.6220  -12.6600 f         1 DKK     -0.159500
     28 C26         3.4500   -2.8210  -13.3470 c2        1 DKK     -0.089000
     29 N27         2.1640   -2.5420  -13.0270 n2        1 DKK     -0.134000
     30 C28         1.3380   -2.1930  -14.0280 c2        1 DKK     -0.064000
     31 C29         1.7400   -2.1090  -15.3760 c2        1 DKK     -0.161000
     32 H7         -0.8130    0.8360   -5.7780 hn        1 DKK      0.245000
     33 H7A        -2.2030   -0.9860   -5.2690 hx        1 DKK      0.149000
     34 H11        -0.0100   -2.6440   -6.4930 hc        1 DKK      0.152000
     35 H11A        1.1020   -2.1990   -5.1380 hc        1 DKK      0.152000
     36 H14         5.4810   -2.7240   -6.8930 ha        1 DKK      0.148000
     37 H15         5.1600   -3.5350   -9.1900 ha        1 DKK      0.150000
     38 H22         4.6200   -4.8080  -10.7310 h1        1 DKK      0.119500
     39 H22A        3.3410   -5.0880  -12.0100 h1        1 DKK      0.119500
     40 H31         4.9960   -2.9960  -14.8740 ha        1 DKK      0.163000
     41 HN2         2.6450    0.8990   -3.6460 hn        1 DKK      0.160000
     42 HN3         2.5320   -0.6780   -0.5110 hn        1 DKK      0.197500
     43 HN3A        3.5770   -0.1290   -1.6720 hn        1 DKK      0.197500
     44 HN4         0.1010    0.0170   -0.8410 hn        1 DKK      0.182000
     45 H6         -1.9210   -1.9020   -3.0460 h1        1 DKK      0.064500
     46 H6A        -0.1430   -2.1420   -3.4180 h1        1 DKK      0.064500
     47 HN8         0.3330    0.3860   -4.6260 hn        1 DKK      0.245000
     48 HN21        1.8660   -3.6900  -10.8090 hn        1 DKK      0.245000
     49 H28         0.2980   -1.9660  -13.7290 h4        1 DKK      0.170000
     50 H29         1.0190   -1.8150  -16.1510 ha        1 DKK      0.152000
     51 H30         3.4210   -2.3520  -16.7300 ha        1 DKK      0.147000
@<TRIPOS>BOND
     1    1   15 1   
     2    1   16 1   
     3    1   17 1   
     4    2   17 1   
     5    2   18 1   
     6    3   18 1   
     7    3   19 1   
     8    3   33 1   
     9    4    5 1   
    10    4   19 1   
    11    4   20 1   
    12    5    6 1   
    13    5   34 1   
    14    5   35 1   
    15    6    7 1   
    16    6   21 1   
    17    7    8 1   
    18    7   11 1   
    19    8    9 1   
    20    8   36 1   
    21    9   10 1   
    22    9   37 1   
    23   10   21 1   
    24   10   24 1   
    25   11   23 1   
    26   12   24 1   
    27   12   25 1   
    28   12   38 1   
    29   12   39 1   
    30   13   14 1   
    31   13   31 1   
    32   13   51 1   
    33   14   28 1   
    34   14   40 1   
    35   15   41 1   
    36   16   42 1   
    37   16   43 1   
    38   17   44 1   
    39   18   45 1   
    40   18   46 1   
    41   19   32 1   
    42   19   47 1   
    43   21   22 1   
    44   24   48 1   
    45   25   26 1   
    46   25   27 1   
    47   25   28 1   
    48   28   29 1   
    49   29   30 1   
    50   30   31 1   
    51   30   49 1   
    52   31   50 1   
@<TRIPOS>SUBSTRUCTURE
     1 DKK         1 TEMP              0 ****  ****    0 ROOT
