@<TRIPOS>MOLECULE
molecule
   50    54     1     0     0
SMALL
bcc


@<TRIPOS>ATOM
      1 N1           0.0000     0.0000     0.0000 nh         1 DKM      -0.555000
      2 N3          -2.4580    -0.7190    -4.0740 na         1 DKM      -0.030200
      3 C4           1.4860     0.0000     0.0000 c3         1 DKM       0.122800
      4 C5           1.8760     0.0000     1.4940 c3         1 DKM       0.141100
      5 C6          -0.5010     0.4660    -1.2180 ca         1 DKM       0.067600
      6 C7          -0.1890     1.7550    -1.6530 ca         1 DKM       0.043900
      7 C8          -0.6780     2.2540    -2.8410 ca         1 DKM      -0.093000
      8 C10         -2.0860     1.9350    -4.8980 c          1 DKM       0.569900
      9 C13         -3.3480    -2.7460    -4.6340 cc         1 DKM      -0.154100
     10 C15         -1.8800    -2.6390    -2.5680 c3         1 DKM       0.243100
     11 C17         -1.3120    -0.3560    -1.9990 ca         1 DKM       0.096600
     12 O2          -4.2510     0.7330    -7.5360 o          1 DKM      -0.817300
     13 O3          -3.4120     2.7810    -7.3130 o          1 DKM      -0.817300
     14 C11         -2.9010     1.0550    -5.6740 cd         1 DKM      -0.234400
     15 O1          -1.8880     3.0820    -5.2680 o          1 DKM      -0.497100
     16 C12         -3.0360    -0.2640    -5.2110 cc         1 DKM       0.100600
     17 C14         -2.5830    -2.0600    -3.7880 cd         1 DKM      -0.096600
     18 S           -3.8720    -1.5950    -5.8790 ss         1 DKM      -0.064800
     19 C18         -1.7530     0.1370    -3.2190 ca         1 DKM      -0.002200
     20 C9          -1.4910     1.4440    -3.6440 ca         1 DKM      -0.144600
     21 F            0.6110     2.5330    -0.8920 f          1 DKM      -0.147900
     22 N2          -1.7240    -1.6090    -1.5390 nh         1 DKM      -0.601000
     23 C16         -2.9370    -1.4960    -0.7180 c3         1 DKM       0.166100
     24 C3          -0.3650     0.9150     1.1120 c3         1 DKM       0.139800
     25 O            2.1180    -1.3350     1.9440 oh         1 DKM      -0.598800
     26 C2           0.6580     0.6020     2.2250 c3         1 DKM       0.169500
     27 N            1.0420     1.8350     2.9260 n3         1 DKM      -0.728600
     28 C1          -0.1070     2.4210     3.6280 c3         1 DKM       0.150600
     29 C            2.1560     1.5890     3.8520 c3         1 DKM       0.150600
     30 H9           1.8620    -0.8920    -0.4870 h1         1 DKM       0.059700
     31 H10          1.8620     0.8920    -0.4870 h1         1 DKM       0.059700
     32 H11          2.7500     0.6200     1.6510 h1         1 DKM       0.046700
     33 H13         -0.4230     3.2580    -3.1590 ha         1 DKM       0.171000
     34 H14         -3.0760    -3.7580    -4.9100 h4         1 DKM       0.174000
     35 H15         -2.4690    -3.4560    -2.1700 h1         1 DKM       0.069200
     36 H16         -0.9020    -3.0040    -2.8590 h1         1 DKM       0.069200
     37 H18         -2.7580    -1.9390     0.2540 h1         1 DKM       0.038033
     38 H17         -3.7540    -2.0140    -1.2060 h1         1 DKM       0.038033
     39 H19         -3.1950    -0.4510    -0.5960 h1         1 DKM       0.038033
     40 H7          -1.3710     0.7070     1.4560 h1         1 DKM       0.062200
     41 H8          -0.2720     1.9470     0.7950 h1         1 DKM       0.062200
     42 H12          3.0220    -1.5570     1.7960 ho         1 DKM       0.395000
     43 H6           0.2450    -0.1190     2.9200 h1         1 DKM       0.053700
     44 H5          -0.6310     1.6460     4.1740 h1         1 DKM       0.031533
     45 H4           0.2410     3.1780     4.3210 h1         1 DKM       0.031533
     46 H3          -0.7780     2.8730     2.9080 h1         1 DKM       0.031533
     47 H2           3.0940     1.6460     3.3120 h1         1 DKM       0.031533
     48 H            2.0510     0.6030     4.2890 h1         1 DKM       0.031533
     49 H1           2.1440     2.3350     4.6370 h1         1 DKM       0.031533
     50 C19         -3.5630     1.5060    -6.8950 c          1 DKM       0.896800
@<TRIPOS>BOND
     1    29    27 1
     2    28    27 1
     3    27    26 1
     4    25     4 1
     5    26     4 1
     6    26    24 1
     7     4     3 1
     8    24     1 1
     9     3     1 1
    10     1     5 1
    11    23    22 1
    12    22    11 1
    13    22    10 1
    14     5    11 ar
    15     5     6 ar
    16    21     6 1
    17    11    19 ar
    18     6     7 ar
    19    10    17 1
    20    19    20 ar
    21    19     2 1
    22     7    20 ar
    23    17     2 1
    24    17     9 2
    25    20     8 1
    26     2    16 1
    27     9    18 1
    28    16    18 1
    29    16    14 2
    30     8    14 1
    31     8    15 2
    32    14    50 1
    33    50    13 1
    34    50    12 1
    35     3    30 1
    36     3    31 1
    37     4    32 1
    38     7    33 1
    39     9    34 1
    40    10    35 1
    41    10    36 1
    42    23    37 1
    43    23    38 1
    44    23    39 1
    45    24    40 1
    46    24    41 1
    47    25    42 1
    48    26    43 1
    49    28    44 1
    50    28    45 1
    51    28    46 1
    52    29    47 1
    53    29    48 1
    54    29    49 1
@<TRIPOS>SUBSTRUCTURE
     1 DKM         1 TEMP              0 ****  ****    0 ROOT
