@<TRIPOS>MOLECULE
DKM
   50    54     1     0     0
SMALL
bcc


@<TRIPOS>ATOM
      1 N1           0.0000     0.0000     0.0000 nh         1 DKM      -0.368000
      2 N3          -2.4580    -0.7190    -4.0740 na         1 DKM       0.464800
      3 C4           1.4860     0.0000     0.0000 c3         1 DKM       0.104800
      4 C5           1.8760     0.0000     1.4940 c3         1 DKM       0.178100
      5 C6          -0.5010     0.4660    -1.2180 ca         1 DKM       0.013600
      6 C7          -0.1890     1.7550    -1.6530 ca         1 DKM       0.020900
      7 C8          -0.6780     2.2540    -2.8410 ca         1 DKM      -0.050000
      8 C10         -2.0860     1.9350    -4.8980 c          1 DKM       0.602900
      9 C13         -3.3480    -2.7460    -4.6340 cc         1 DKM      -0.060100
     10 C15         -1.8800    -2.6390    -2.5680 c3         1 DKM       0.232100
     11 C17         -1.3120    -0.3560    -1.9990 ca         1 DKM       0.015600
     12 O2          -4.2510     0.7330    -7.5360 o          1 DKM      -0.855800
     13 O3          -3.4120     2.7810    -7.3130 o          1 DKM      -0.855800
     14 C11         -2.9010     1.0550    -5.6740 cc         1 DKM      -0.195400
     15 O1          -1.8880     3.0820    -5.2680 o          1 DKM      -0.515100
     16 C12         -3.0360    -0.2640    -5.2110 cd         1 DKM      -0.031400
     17 C14         -2.5830    -2.0600    -3.7880 cd         1 DKM      -0.271600
     18 S           -3.8720    -1.5950    -5.8790 ss         1 DKM      -0.220800
     19 C18         -1.7530     0.1370    -3.2190 ca         1 DKM      -0.161200
     20 C9          -1.4910     1.4440    -3.6440 ca         1 DKM      -0.141600
     21 F            0.6110     2.5330    -0.8920 f          1 DKM      -0.131900
     22 N2          -1.7240    -1.6090    -1.5390 nh         1 DKM      -0.363000
     23 C16         -2.9370    -1.4960    -0.7180 c3         1 DKM       0.170100
     24 C3          -0.3650     0.9150     1.1120 c3         1 DKM       0.117800
     25 O            2.1180    -1.3350     1.9440 oh         1 DKM      -0.578800
     26 C2           0.6580     0.6020     2.2250 c3         1 DKM       0.120500
     27 N            1.0420     1.8350     2.9260 n3         1 DKM      -0.538600
     28 C1          -0.1070     2.4210     3.6280 c3         1 DKM       0.177600
     29 C            2.1560     1.5890     3.8520 c3         1 DKM       0.177600
     30 H9           1.8620    -0.8920    -0.4870 h1         1 DKM       0.032200
     31 H10          1.8620     0.8920    -0.4870 h1         1 DKM       0.032200
     32 H11          2.7500     0.6200     1.6510 h1         1 DKM       0.017700
     33 H13         -0.4230     3.2580    -3.1590 ha         1 DKM       0.140000
     34 H14         -3.0760    -3.7580    -4.9100 h4         1 DKM       0.153000
     35 H15         -2.4690    -3.4560    -2.1700 h1         1 DKM       0.032700
     36 H16         -0.9020    -3.0040    -2.8590 h1         1 DKM       0.032700
     37 H18         -2.7580    -1.9390     0.2540 h1         1 DKM       0.008367
     38 H17         -3.7540    -2.0140    -1.2060 h1         1 DKM       0.008367
     39 H19         -3.1950    -0.4510    -0.5960 h1         1 DKM       0.008367
     40 H7          -1.3710     0.7070     1.4560 h1         1 DKM       0.034700
     41 H8          -0.2720     1.9470     0.7950 h1         1 DKM       0.034700
     42 H12          3.0220    -1.5570     1.7960 ho         1 DKM       0.382000
     43 H6           0.2450    -0.1190     2.9200 h1         1 DKM       0.034700
     44 H5          -0.6310     1.6460     4.1740 h1         1 DKM       0.001700
     45 H4           0.2410     3.1780     4.3210 h1         1 DKM       0.001700
     46 H3          -0.7780     2.8730     2.9080 h1         1 DKM       0.001700
     47 H2           3.0940     1.6460     3.3120 h1         1 DKM       0.001700
     48 H            2.0510     0.6030     4.2890 h1         1 DKM       0.001700
     49 H1           2.1440     2.3350     4.6370 h1         1 DKM       0.001700
     50 C19         -3.5630     1.5060    -6.8950 c          1 DKM       0.977800
@<TRIPOS>BOND
     1     1     3 1   
     2     1     5 1   
     3     1    24 1   
     4     2    16 1   
     5     2    17 1   
     6     2    19 1   
     7     3     4 1   
     8     3    30 1   
     9     3    31 1   
    10     4    25 1   
    11     4    26 1   
    12     4    32 1   
    13     5     6 ar  
    14     5    11 ar  
    15     6     7 ar  
    16     6    21 1   
    17     7    20 ar  
    18     7    33 1   
    19     8    14 1   
    20     8    15 2   
    21     8    20 1   
    22     9    17 2   
    23     9    18 1   
    24     9    34 1   
    25    10    17 1   
    26    10    22 1   
    27    10    35 1   
    28    10    36 1   
    29    11    19 ar  
    30    11    22 1   
    31    12    50 1   
    32    13    50 1   
    33    14    16 2   
    34    14    50 1   
    35    16    18 1   
    36    19    20 ar  
    37    22    23 1   
    38    23    37 1   
    39    23    38 1   
    40    23    39 1   
    41    24    26 1   
    42    24    40 1   
    43    24    41 1   
    44    25    42 1   
    45    26    27 1   
    46    26    43 1   
    47    27    28 1   
    48    27    29 1   
    49    28    44 1   
    50    28    45 1   
    51    28    46 1   
    52    29    47 1   
    53    29    48 1   
    54    29    49 1   
@<TRIPOS>SUBSTRUCTURE
     1 DKM         1 TEMP              0 ****  ****    0 ROOT
