@<TRIPOS>MOLECULE
molecule
   40    42     1     0     0
SMALL
bcc


@<TRIPOS>ATOM
      1 C10          0.0000     0.0000     0.0000 ca         1 DKP      -0.125000
      2 C20         -4.5670     4.1750     3.6550 c          1 DKP       0.889200
      3 C01          0.6890    -3.9950     6.1330 c3         1 DKP      -0.092100
      4 C02          0.8440    -2.4800     5.9830 c3         1 DKP      -0.083400
      5 C03         -0.0760    -1.9830     4.8660 c3         1 DKP       0.136400
      6 C05         -0.7510     0.0010     3.7020 c3         1 DKP       0.259600
      7 C06          0.0010     0.0010     2.3970 ca         1 DKP      -0.094300
      8 C07          1.3830     0.0010     2.3950 ca         1 DKP      -0.091000
      9 C08          2.0730     0.0000     1.1980 ca         1 DKP      -0.138000
     10 C09          1.3820     0.0000     0.0000 ca         1 DKP      -0.127000
     11 C11         -0.6920    -0.0010     1.1990 ca         1 DKP       0.037400
     12 C13         -1.1100     1.4160     4.0750 cc         1 DKP      -0.085300
     13 C14         -0.3020     2.2700     4.7260 cd         1 DKP      -0.286800
     14 C15         -1.0420     3.5240     4.8810 ca         1 DKP       0.380100
     15 C17         -1.6190     5.6900     5.4410 ca         1 DKP       0.366200
     16 C18         -2.8730     5.5610     4.8710 ca         1 DKP      -0.214300
     17 C19         -3.2360     4.3500     4.2720 ca         1 DKP      -0.085600
     18 C23         -2.2970     3.3070     4.2790 ca         1 DKP      -0.113500
     19 N16         -0.7550     4.6980     5.4340 nb         1 DKP      -0.690000
     20 N24         -2.3020     2.0240     3.7960 na         1 DKP      -0.143400
     21 O04          0.0690    -0.5680     4.7250 os         1 DKP      -0.413600
     22 O21         -5.4520     5.1900     3.6620 o          1 DKP      -0.839300
     23 O22         -4.8620     3.1160     3.1390 o          1 DKP      -0.839300
     24 Cl1         -2.4280     0.0000     1.2000 cl         1 DKP      -0.092400
     25 H1          -0.5210    -0.0010    -0.9500 ha         1 DKP       0.139000
     26 H2           0.9570    -4.4800     5.2010 hc         1 DKP       0.032700
     27 H3          -0.3390    -4.2310     6.3800 hc         1 DKP       0.032700
     28 H4           1.3410    -4.3480     6.9230 hc         1 DKP       0.032700
     29 H5           1.8720    -2.2450     5.7350 hc         1 DKP       0.052200
     30 H6           0.5760    -1.9960     6.9140 hc         1 DKP       0.052200
     31 H7           0.1910    -2.4680     3.9340 h1         1 DKP       0.025200
     32 H8          -1.1040    -2.2180     5.1130 h1         1 DKP       0.025200
     33 H9          -1.6560    -0.5850     3.5970 h1         1 DKP       0.057700
     34 H10          1.9250     0.0190     3.3320 ha         1 DKP       0.152000
     35 H11          3.1560     0.0020     1.1980 ha         1 DKP       0.125000
     36 H12          1.9240    -0.0230    -0.9380 ha         1 DKP       0.126000
     37 H13          0.6320     2.0180     5.2120 ha         1 DKP       0.150000
     38 H14         -1.3420     6.6300     5.9040 h4         1 DKP      -0.003900
     39 H15         -3.5690     6.3910     4.8880 ha         1 DKP       0.158000
     40 H16         -3.0660     1.5950     3.3120 hn         1 DKP       0.326700
@<TRIPOS>BOND
     1     1    10 ar
     2     1    11 ar
     3    10     9 ar
     4    24    11 1
     5    11     7 ar
     6     9     8 ar
     7     7     8 ar
     8     7     6 1
     9    13    14 1
    10    13    12 2
    11    19    14 ar
    12    19    15 ar
    13     6    12 1
    14     6    21 1
    15    14    18 ar
    16    12    20 1
    17    15    16 ar
    18    21     5 1
    19    18    20 1
    20    18    17 ar
    21     5     4 1
    22    16    17 ar
    23    17     2 1
    24     4     3 1
    25     2    23 1
    26     2    22 1
    27     1    25 1
    28     3    26 1
    29     3    27 1
    30     3    28 1
    31     4    29 1
    32     4    30 1
    33     5    31 1
    34     5    32 1
    35     6    33 1
    36     8    34 1
    37     9    35 1
    38    10    36 1
    39    13    37 1
    40    15    38 1
    41    16    39 1
    42    20    40 1
@<TRIPOS>SUBSTRUCTURE
     1 DKP         1 TEMP              0 ****  ****    0 ROOT
