@<TRIPOS>MOLECULE
DKQ
   18    18     1     0     0
SMALL
bcc


@<TRIPOS>ATOM
      1 Cl           0.0000     0.0000     0.0000 cl         1 DKQ       0.068600
      2 C4           1.7360     0.0000     0.0000 ca         1 DKQ      -0.007600
      3 C3           2.4260     0.0000     1.2000 ca         1 DKQ      -0.068500
      4 C2           3.8060    -0.0010     1.2060 ca         1 DKQ      -0.061000
      5 C5           2.4260    -0.0070    -1.2010 ca         1 DKQ      -0.068500
      6 C6           3.8050    -0.0120    -1.2070 ca         1 DKQ      -0.061000
      7 C1           4.5050    -0.0000    -0.0010 ca         1 DKQ      -0.238900
      8 C            5.9850    -0.0060    -0.0020 ce         1 DKQ       0.214800
      9 N1           6.6360    -0.0220    -1.1290 n2         1 DKQ      -0.489100
     10 N            6.6750     0.0050     1.1920 nz         1 DKQ       0.188400
     11 H1           1.8820    -0.0000     2.1370 ha         1 DKQ       0.137000
     12 H2           4.3450     0.0040     2.1460 ha         1 DKQ       0.099500
     13 H3           1.8810    -0.0160    -2.1370 ha         1 DKQ       0.137000
     14 H4           4.3440    -0.0150    -2.1470 ha         1 DKQ       0.099500
     15 H5           6.1370    -0.0300    -1.9970 hn         1 DKQ       0.382400
     16 H6           7.6590     0.0070     1.0090 hn         1 DKQ       0.221800
     17 H7           6.4360    -0.8090     1.7230 hn         1 DKQ       0.221800
     18 HN3          6.4310     0.8250     1.7110 hn         1 DKQ       0.221800
@<TRIPOS>BOND
     1     1     2 1   
     2     2     3 ar  
     3     2     5 ar  
     4     3     4 ar  
     5     3    11 1   
     6     4     7 ar  
     7     4    12 1   
     8     5     6 ar  
     9     5    13 1   
    10     6     7 ar  
    11     6    14 1   
    12     7     8 1   
    13     8     9 2   
    14     8    10 1   
    15     9    15 1   
    16    10    16 1   
    17    10    17 1   
    18    10    18 1   
@<TRIPOS>SUBSTRUCTURE
     1 DKQ         1 TEMP              0 ****  ****    0 ROOT
