@<TRIPOS>MOLECULE
molecule
   18    18     1     0     0
SMALL
bcc


@<TRIPOS>ATOM
      1 Cl           0.0000     0.0000     0.0000 cl         1 DKQ      -0.035400
      2 C4           1.7360     0.0000     0.0000 ca         1 DKQ       0.076400
      3 C3           2.4260     0.0000     1.2000 ca         1 DKQ      -0.110000
      4 C2           3.8060    -0.0010     1.2060 ca         1 DKQ      -0.074500
      5 C5           2.4260    -0.0070    -1.2010 ca         1 DKQ      -0.110000
      6 C6           3.8050    -0.0120    -1.2070 ca         1 DKQ      -0.074500
      7 C1           4.5050    -0.0000    -0.0010 ca         1 DKQ      -0.201900
      8 C            5.9850    -0.0060    -0.0020 ce         1 DKQ       0.544800
      9 N1           6.6360    -0.0220    -1.1290 n2         1 DKQ      -0.681100
     10 N            6.6750     0.0050     1.1920 nz         1 DKQ      -0.802600
     11 H1           1.8820    -0.0000     2.1370 ha         1 DKQ       0.174500
     12 H2           4.3450     0.0040     2.1460 ha         1 DKQ       0.143500
     13 H3           1.8810    -0.0160    -2.1370 ha         1 DKQ       0.174500
     14 H4           4.3440    -0.0150    -2.1470 ha         1 DKQ       0.143500
     15 H5           7.6370    -0.0260    -1.1310 hn         1 DKQ       0.435400
     16 H6           6.4290     0.8240     1.7120 hn         1 DKQ       0.465800
     17 H7           7.6590     0.0090     1.0090 hn         1 DKQ       0.465800
     18 HN3          6.4380    -0.8100     1.7220 hn         1 DKQ       0.465800
@<TRIPOS>BOND
     1     9     8 2
     2     8    10 1
     3     8     7 1
     4     6     7 ar
     5     6     5 ar
     6     7     4 ar
     7     5     2 ar
     8     4     3 ar
     9     2     3 ar
    10     2     1 1
    11     3    11 1
    12     4    12 1
    13     5    13 1
    14     6    14 1
    15     9    15 1
    16    10    16 1
    17    10    17 1
    18    18    10 1
@<TRIPOS>SUBSTRUCTURE
     1 DKQ         1 TEMP              0 ****  ****    0 ROOT
