@<TRIPOS>MOLECULE
molecule
   52    55     1     0     0
SMALL
bcc


@<TRIPOS>ATOM
      1 C10          0.0000     0.0000     0.0000 ca         1 DKS      -0.138000
      2 C13          1.3830    -0.0120     2.3950 ca         1 DKS       0.036400
      3 C17          4.5650     2.5280    -1.3530 c3         1 DKS       0.167800
      4 C20          7.4950     1.5100    -3.4870 c3         1 DKS      -0.116400
      5 C21          8.6150     2.1640    -2.6750 c3         1 DKS       0.395600
      6 C24          8.2940     2.0360    -1.1830 c3         1 DKS      -0.116400
      7 C26          4.2390    -2.2630     0.2590 cc         1 DKS      -0.278800
      8 C03          5.2890    -4.3960     2.9960 ca         1 DKS      -0.086600
      9 C04          4.8340    -3.3360     2.1960 ca         1 DKS      -0.112500
     10 C06          4.0770    -1.4260     1.2980 cd         1 DKS      -0.084300
     11 C07          3.5810    -0.0070     1.1960 c3         1 DKS       0.255600
     12 C08          2.0740     0.0000     1.1970 ca         1 DKS      -0.098300
     13 C09          1.3820     0.0000     0.0000 ca         1 DKS      -0.095000
     14 C11         -0.6920    -0.0000     1.1980 ca         1 DKS      -0.126000
     15 C12         -0.0020    -0.0060     2.3940 ca         1 DKS      -0.124000
     16 C19          6.1610     2.1740    -3.1380 c3         1 DKS       0.163800
     17 C25          6.9380     2.6860    -0.8990 c3         1 DKS       0.163800
     18 C27          4.7350    -3.5290     0.8040 ca         1 DKS       0.380100
     19 C29          5.4980    -5.7020     0.9900 ca         1 DKS       0.366200
     20 C30          5.6240    -5.5960     2.3640 ca         1 DKS      -0.213300
     21 F22          9.8270     1.5220    -2.9480 f          1 DKS      -0.245800
     22 F23          8.7140     3.5160    -3.0180 f          1 DKS      -0.245800
     23 N05          4.4290    -2.0530     2.4620 na         1 DKS      -0.144400
     24 N18          5.8990     2.0240    -1.7000 n3         1 DKS      -0.712600
     25 N28          5.0670    -4.6940     0.2610 nb         1 DKS      -0.690000
     26 O01          5.1160    -3.1930     4.9910 o          1 DKS      -0.839300
     27 O15          4.0590     0.5790    -0.0170 os         1 DKS      -0.392600
     28 O31          5.8510    -5.2760     5.2100 o          1 DKS      -0.839300
     29 Cl1          2.2500    -0.0190     3.8980 cl         1 DKS      -0.091400
     30 H1          -0.5420     0.0020    -0.9380 ha         1 DKS       0.126000
     31 H2           3.8470     2.1890    -2.0900 h1         1 DKS       0.039700
     32 H3           4.5810     3.6110    -1.3360 h1         1 DKS       0.039700
     33 H4           7.6950     1.6370    -4.5440 hc         1 DKS       0.076700
     34 H5           7.4450     0.4540    -3.2480 hc         1 DKS       0.076700
     35 H6           8.2550     0.9880    -0.9110 hc         1 DKS       0.076700
     36 H7           9.0610     2.5360    -0.6050 hc         1 DKS       0.076700
     37 H8           3.8840    -2.1000    -0.7510 ha         1 DKS       0.149000
     38 H9           3.9450     0.5640     2.0410 h1         1 DKS       0.055700
     39 H10          1.9240     0.0050    -0.9380 ha         1 DKS       0.151000
     40 H11         -1.7750     0.0020     1.1970 ha         1 DKS       0.126000
     41 H12         -0.5440    -0.0100     3.3320 ha         1 DKS       0.140000
     42 H13          4.9160     2.2870     0.7540 h1         1 DKS       0.026700
     43 H14          3.2090     2.4270     0.3120 h1         1 DKS       0.026700
     44 H15          6.2070     3.2280    -3.3870 h1         1 DKS       0.041700
     45 H16          5.3650     1.7000    -3.6990 h1         1 DKS       0.041700
     46 H17          6.7020     2.5820     0.1530 h1         1 DKS       0.041700
     47 H18          6.9810     3.7360    -1.1630 h1         1 DKS       0.041700
     48 H19          5.7590    -6.6340     0.5050 h4         1 DKS      -0.002900
     49 H20          5.9800    -6.4370     2.9460 ha         1 DKS       0.158000
     50 H21          4.3950    -1.6380     3.3710 hn         1 DKS       0.326700
     51 C16          4.1650     2.0030     0.0280 c3         1 DKS       0.138400
     52 C02          5.4110    -4.2450     4.4610 c          1 DKS       0.888200
@<TRIPOS>BOND
     1    22     5 1
     2    17     6 1
     3    17    24 1
     4     6     5 1
     5     5    21 1
     6     5     4 1
     7     3    24 1
     8     3    51 1
     9    16    24 1
    10    16     4 1
    11    51    27 1
    12    27    11 1
    13     7    18 1
    14     7    10 2
    15    13     1 ar
    16    13    12 ar
    17    25    18 ar
    18    25    19 ar
    19     1    14 ar
    20    18     9 ar
    21    11    10 1
    22    11    12 1
    23    10    23 1
    24    12     2 ar
    25    19    20 ar
    26    14    15 ar
    27     9    23 1
    28     9     8 ar
    29     2    15 ar
    30     2    29 1
    31    20     8 ar
    32     8    52 1
    33    52    26 1
    34    52    28 1
    35     1    30 1
    36     3    31 1
    37     3    32 1
    38     4    33 1
    39     4    34 1
    40     6    35 1
    41     6    36 1
    42     7    37 1
    43    11    38 1
    44    13    39 1
    45    14    40 1
    46    15    41 1
    47    51    42 1
    48    51    43 1
    49    16    44 1
    50    16    45 1
    51    17    46 1
    52    17    47 1
    53    19    48 1
    54    20    49 1
    55    23    50 1
@<TRIPOS>SUBSTRUCTURE
     1 DKS         1 TEMP              0 ****  ****    0 ROOT
