@<TRIPOS>MOLECULE
molecule
   50    53     1     0     0
SMALL
bcc


@<TRIPOS>ATOM
      1 C10          0.0000     0.0000     0.0000 cc         1 DKV      -0.076300
      2 C13         -2.1610     2.1460    -1.3290 ca         1 DKV      -0.090000
      3 C15         -1.3790     4.0240    -2.5910 ca         1 DKV      -0.125000
      4 C17         -0.0970     2.0020    -2.5360 ca         1 DKV       0.043400
      5 C21         -4.1190    -1.7810    -1.5820 c3         1 DKV      -0.073700
      6 C22         -4.8450    -2.3770    -2.7900 c3         1 DKV      -0.076400
      7 C24         -5.9740    -4.0310    -1.2950 c3         1 DKV       0.396600
      8 C28         -3.8960    -2.8710    -0.5320 c3         1 DKV      -0.076400
      9 C02         -0.5280    -0.0170     4.4120 c          1 DKV       0.888200
     10 C03          0.6830    -0.0100     3.5640 ca         1 DKV      -0.084600
     11 C04          1.9590    -0.0050     4.1320 ca         1 DKV      -0.215300
     12 C05          3.0720    -0.0140     3.3090 ca         1 DKV       0.368200
     13 C07          1.7710     0.0000     1.4010 ca         1 DKV       0.385100
     14 C08          0.5870    -0.0070     2.1630 ca         1 DKV      -0.117500
     15 C11         -0.8650     0.0070    -1.2330 c3         1 DKV       0.258600
     16 C12         -1.0470     1.4230    -1.7130 ca         1 DKV      -0.098300
     17 C14         -2.3280     3.4460    -1.7680 ca         1 DKV      -0.132000
     18 C16         -0.2650     3.3040    -2.9760 ca         1 DKV      -0.128000
     19 C23         -6.1970    -2.9410    -2.3460 c3         1 DKV      -0.117400
     20 C27         -5.2480    -3.4350    -0.0870 c3         1 DKV      -0.117400
     21 C29          1.3430     0.0000     0.0000 cd         1 DKV      -0.308800
     22 F25         -5.1990    -5.0570    -1.8460 f          1 DKV      -0.245300
     23 F26         -7.2100    -4.5460    -0.8900 f          1 DKV      -0.245300
     24 N06          2.9570    -0.0040     1.9990 nb         1 DKV      -0.690000
     25 N09         -0.4670    -0.0010     1.2860 na         1 DKV      -0.132400
     26 O01         -1.6290    -0.0210     3.8980 o          1 DKV      -0.838800
     27 O19         -2.1410    -0.5590    -0.9250 os         1 DKV      -0.420600
     28 O30         -0.4110    -0.0200     5.7530 o          1 DKV      -0.838800
     29 H1          -2.9050     1.6930    -0.6850 ha         1 DKV       0.157000
     30 H2          -1.5100     5.0430    -2.9350 ha         1 DKV       0.127000
     31 H3          -2.1350    -2.0260    -2.3710 h1         1 DKV       0.026200
     32 H4          -2.9190    -0.5090    -2.8320 h1         1 DKV       0.026200
     33 H5          -4.7230    -0.9900    -1.1550 hc         1 DKV       0.064700
     34 H6          -4.2460    -3.1730    -3.2150 hc         1 DKV       0.060700
     35 H7          -5.0050    -1.6030    -3.5320 hc         1 DKV       0.060700
     36 H8          -3.2980    -3.6660    -0.9600 hc         1 DKV       0.060700
     37 H9          -3.3840    -2.4470     0.3230 hc         1 DKV       0.060700
     38 H10          2.0770    -0.0140     5.2090 ha         1 DKV       0.159000
     39 H11          4.0600    -0.0100     3.7540 h4         1 DKV      -0.002900
     40 H12         -0.3900    -0.5790    -2.0110 h1         1 DKV       0.063700
     41 H13         -3.2010     4.0110    -1.4670 ha         1 DKV       0.131000
     42 H14          0.4780     3.7580    -3.6210 ha         1 DKV       0.137000
     43 H15         -6.7090    -3.3640    -3.2010 hc         1 DKV       0.065950
     44 H16         -6.7950    -2.1450    -1.9180 hc         1 DKV       0.065950
     45 H17         -5.0890    -4.2080     0.6540 hc         1 DKV       0.065950
     46 H18         -5.8480    -2.6390     0.3370 hc         1 DKV       0.065950
     47 H19          1.9800    -0.1670    -0.8600 ha         1 DKV       0.147000
     48 H20         -1.4330     0.0030     1.5470 hn         1 DKV       0.332700
     49 C20         -2.7680    -1.2180    -2.0270 c3         1 DKV       0.143400
     50 Cl1          1.3030     1.0960    -3.0190 cl         1 DKV      -0.110400
@<TRIPOS>BOND
     1    23     7 1
     2     7    22 1
     3     7    19 1
     4     7    20 1
     5    19     6 1
     6    20     8 1
     7     6     5 1
     8     8     5 1
     9     5    49 1
    10    49    27 1
    11    27    15 1
    12    21    13 1
    13    21     1 2
    14     2    17 ar
    15     2    16 ar
    16    24    13 ar
    17    24    12 ar
    18    15     1 1
    19    15    16 1
    20    17     3 ar
    21    13    14 ar
    22     1    25 1
    23    16     4 ar
    24    12    11 ar
    25     3    18 ar
    26    14    25 1
    27    14    10 ar
    28     4    18 ar
    29     4    50 1
    30    11    10 ar
    31    10     9 1
    32     9    26 1
    33     9    28 1
    34     2    29 1
    35     3    30 1
    36    49    31 1
    37    49    32 1
    38     5    33 1
    39     6    34 1
    40     6    35 1
    41     8    36 1
    42     8    37 1
    43    11    38 1
    44    12    39 1
    45    15    40 1
    46    17    41 1
    47    18    42 1
    48    19    43 1
    49    19    44 1
    50    20    45 1
    51    20    46 1
    52    21    47 1
    53    25    48 1
@<TRIPOS>SUBSTRUCTURE
     1 DKV         1 TEMP              0 ****  ****    0 ROOT
