@<TRIPOS>MOLECULE
molecule
   37    39     1     0     0
SMALL
bcc


@<TRIPOS>ATOM
      1 N3           0.0000     0.0000     0.0000 nb         1 DKW      -0.786000
      2 C4           1.3290     0.0000     0.0000 ca         1 DKW       0.460800
      3 C5           2.0110     0.0000     1.2290 ca         1 DKW      -0.191200
      4 C6           1.2500    -0.0000     2.4110 ca         1 DKW       0.784200
      5 C8           3.5070     0.0000    -0.3400 cc         1 DKW       0.438700
      6 C2          -0.6720    -0.0010     1.1310 ca         1 DKW       0.729900
      7 N1          -0.0760    -0.0010     2.3100 nb         1 DKW      -0.815000
      8 CAK          2.0750     0.0010    -2.4180 c3         1 DKW       0.252800
      9 CAM          3.3460     0.1850    -4.3450 c3         1 DKW       0.032100
     10 CAN          2.9900     1.6450    -3.9680 c3         1 DKW       0.104100
     11 CAP          1.8700     1.4440    -2.9170 c3         1 DKW       0.061100
     12 CAR          4.7540     0.1040    -4.8780 c          1 DKW       0.663100
     13 CAU          6.4420     0.6400    -6.5510 c3         1 DKW       0.205100
     14 CAV          6.5320     1.3880    -7.8150 c1         1 DKW      -0.176100
     15 CAW          6.6050     2.0020    -8.8130 c1         1 DKW      -0.119500
     16 N6           1.8650    -0.0020     3.6500 nv         1 DKW      -1.008500
     17 N7           3.3360     0.0000     0.9500 nd         1 DKW      -0.583100
     18 N9           2.2990     0.0000    -0.9700 na         1 DKW      -0.261000
     19 NAT          5.0740     0.7180    -6.0340 ns         1 DKW      -0.578900
     20 OAL          3.2310    -0.5240    -3.0940 os         1 DKW      -0.372600
     21 OAO          2.5000     2.3610    -5.1030 oh         1 DKW      -0.593800
     22 OAQ          0.5840     1.5860    -3.5220 oh         1 DKW      -0.594800
     23 OAS          5.5980    -0.5160    -4.2660 o          1 DKW      -0.581100
     24 H1           4.4690     0.0000    -0.8390 h5         1 DKW       0.097800
     25 H2          -1.7550    -0.0010     1.0950 h5         1 DKW       0.062100
     26 H3           1.2060    -0.5980    -2.6610 h2         1 DKW       0.110700
     27 H4           2.6370    -0.2030    -5.0660 h1         1 DKW       0.078700
     28 H5           3.8430     2.1460    -3.5270 h1         1 DKW       0.108700
     29 H6           1.9900     2.1460    -2.1000 h1         1 DKW       0.076700
     30 H7           6.7030    -0.3970    -6.7260 h1         1 DKW       0.072200
     31 H8           7.1260     1.0670    -5.8290 h1         1 DKW       0.072200
     32 H9           6.6640     2.5550    -9.7430 ha         1 DKW       0.169500
     33 H10          2.6970     0.5360     3.7960 hn         1 DKW       0.449300
     34 H11          1.4780    -0.5390     4.4010 hn         1 DKW       0.449300
     35 H12          4.3680     1.1950    -6.5590 hn         1 DKW       0.330500
     36 H13          1.6440     2.0400    -5.3320 ho         1 DKW       0.424000
     37 H14          0.1970     2.4020    -3.2520 ho         1 DKW       0.426000
@<TRIPOS>BOND
     1    15    14 3
     2    14    13 1
     3    16     4 1
     4    17     3 1
     5    17     5 2
     6     4     3 ar
     7     4     7 ar
     8    23    12 2
     9     3     2 ar
    10     5    18 1
    11    13    19 1
    12    20     9 1
    13    20     8 1
    14    19    12 1
    15    12     9 1
    16     7     6 ar
    17     9    10 1
    18     2    18 1
    19     2     1 ar
    20    18     8 1
    21     6     1 ar
    22     8    11 1
    23    10    11 1
    24    10    21 1
    25    11    22 1
    26     5    24 1
    27     6    25 1
    28     8    26 1
    29     9    27 1
    30    10    28 1
    31    11    29 1
    32    13    30 1
    33    13    31 1
    34    15    32 1
    35    16    33 1
    36    16    34 1
    37    19    35 1
    38    21    36 1
    39    22    37 1
@<TRIPOS>SUBSTRUCTURE
     1 DKW         1 TEMP              0 ****  ****    0 ROOT
