@<TRIPOS>MOLECULE
DKW
   37    39     1     0     0
SMALL
bcc


@<TRIPOS>ATOM
      1 N3           0.0000     0.0000     0.0000 nb         1 DKW      -0.670000
      2 C4           1.3290     0.0000     0.0000 ca         1 DKW       0.256800
      3 C5           2.0110     0.0000     1.2290 ca         1 DKW      -0.224200
      4 C6           1.2500    -0.0000     2.4110 ca         1 DKW       0.591200
      5 C8           3.5070     0.0000    -0.3400 cc         1 DKW       0.263700
      6 C2          -0.6720    -0.0010     1.1310 ca         1 DKW       0.677900
      7 N1          -0.0760    -0.0010     2.3100 nb         1 DKW      -0.721000
      8 CAK          2.0750     0.0010    -2.4180 c3         1 DKW       0.145800
      9 CAM          3.3460     0.1850    -4.3450 c3         1 DKW       0.077100
     10 CAN          2.9900     1.6450    -3.9680 c3         1 DKW       0.143100
     11 CAP          1.8700     1.4440    -2.9170 c3         1 DKW       0.102100
     12 CAR          4.7540     0.1040    -4.8780 c          1 DKW       0.567100
     13 CAU          6.4420     0.6400    -6.5510 c3         1 DKW       0.189100
     14 CAV          6.5320     1.3880    -7.8150 c1         1 DKW      -0.199100
     15 CAW          6.6050     2.0020    -8.8130 c1         1 DKW      -0.083500
     16 N6           1.8650    -0.0020     3.6500 nv         1 DKW      -0.517500
     17 N7           3.3360     0.0000     0.9500 nd         1 DKW      -0.494100
     18 N9           2.2990     0.0000    -0.9700 na         1 DKW       0.194000
     19 NAT          5.0740     0.7180    -6.0340 ns         1 DKW      -0.192900
     20 OAL          3.2310    -0.5240    -3.0940 os         1 DKW      -0.354600
     21 OAO          2.5000     2.3610    -5.1030 oh         1 DKW      -0.585800
     22 OAQ          0.5840     1.5860    -3.5220 oh         1 DKW      -0.570800
     23 OAS          5.5980    -0.5160    -4.2660 o          1 DKW      -0.624100
     24 H1           4.4690     0.0000    -0.8390 h5         1 DKW       0.049800
     25 H2          -1.7550    -0.0010     1.0950 h5         1 DKW      -0.003900
     26 H3           1.2060    -0.5980    -2.6610 h2         1 DKW       0.068700
     27 H4           2.6370    -0.2030    -5.0660 h1         1 DKW       0.040700
     28 H5           3.8430     2.1460    -3.5270 h1         1 DKW       0.063700
     29 H6           1.9900     2.1460    -2.1000 h1         1 DKW       0.034700
     30 H7           6.7030    -0.3970    -6.7260 h1         1 DKW       0.032200
     31 H8           7.1260     1.0670    -5.8290 h1         1 DKW       0.032200
     32 H9           6.6640     2.5550    -9.7430 ha         1 DKW       0.141500
     33 H10          2.6970     0.5360     3.7960 hn         1 DKW       0.277300
     34 H11          1.4780    -0.5390     4.4010 hn         1 DKW       0.277300
     35 H12          4.3680     1.1950    -6.5590 hn         1 DKW       0.189500
     36 H13          1.6440     2.0400    -5.3320 ho         1 DKW       0.415000
     37 H14          0.1970     2.4020    -3.2520 ho         1 DKW       0.411000
@<TRIPOS>BOND
     1     1     2 ar  
     2     1     6 ar  
     3     2     3 ar  
     4     2    18 1   
     5     3     4 ar  
     6     3    17 1   
     7     4     7 ar  
     8     4    16 1   
     9     5    17 2   
    10     5    18 1   
    11     5    24 1   
    12     6     7 ar  
    13     6    25 1   
    14     8    11 1   
    15     8    18 1   
    16     8    20 1   
    17     8    26 1   
    18     9    10 1   
    19     9    12 1   
    20     9    20 1   
    21     9    27 1   
    22    10    11 1   
    23    10    21 1   
    24    10    28 1   
    25    11    22 1   
    26    11    29 1   
    27    12    19 1   
    28    12    23 2   
    29    13    14 1   
    30    13    19 1   
    31    13    30 1   
    32    13    31 1   
    33    14    15 3   
    34    15    32 1   
    35    16    33 1   
    36    16    34 1   
    37    19    35 1   
    38    21    36 1   
    39    22    37 1   
@<TRIPOS>SUBSTRUCTURE
     1 DKW         1 TEMP              0 ****  ****    0 ROOT
