@<TRIPOS>MOLECULE
molecule
   32    33     1     0     0
SMALL
bcc


@<TRIPOS>ATOM
      1 C1           0.0000     0.0000     0.0000 c3         1 DKX       0.326500
      2 N1          -0.4880     0.0580    -1.3800 n          1 DKX      -0.349000
      3 C2           1.5310     0.0000     0.0000 c3         1 DKX       0.078100
      4 N2          -1.6410    -0.9520    -3.1500 ns         1 DKX      -0.558500
      5 O2           2.0090    -1.1670    -0.6720 oh         1 DKX      -0.578800
      6 C3           2.0340     0.0000     1.4480 c3         1 DKX       0.120600
      7 F3           3.4310     0.0720     1.4570 f          1 DKX      -0.237300
      8 C4           1.4520     1.2150     2.1780 c3         1 DKX       0.086100
      9 O4           1.8570     1.1850     3.5490 oh         1 DKX      -0.589800
     10 C5          -0.0750     1.1670     2.0940 c3         1 DKX       0.155100
     11 O5          -0.4750     1.1380     0.7220 os         1 DKX      -0.415600
     12 C6          -0.6620     2.4080     2.7710 c3         1 DKX       0.153400
     13 O6          -2.0880     2.3080     2.7950 oh         1 DKX      -0.595800
     14 C7          -0.2350     1.1660    -2.1430 cc         1 DKX       0.044600
     15 C8          -0.6850     1.2190    -3.4140 cd         1 DKX      -0.324200
     16 C9          -1.4120     0.1210    -3.9330 c          1 DKX       0.704700
     17 O9          -1.8280     0.1460    -5.0780 o          1 DKX      -0.618500
     18 C10         -1.1760    -0.9800    -1.8870 c          1 DKX       0.822500
     19 O10         -1.3870    -1.9570    -1.1940 o          1 DKX      -0.647500
     20 H1          -0.3590    -0.9040     0.4770 h2         1 DKX       0.115700
     21 H2           1.8910     0.8880    -0.5060 h1         1 DKX       0.050700
     22 HO2          2.9060    -1.0360    -0.9290 ho         1 DKX       0.420000
     23 H3           1.7090    -0.9080     1.9420 h1         1 DKX       0.092700
     24 H4           1.8110     2.1230     1.7100 h1         1 DKX       0.053700
     25 HO4          2.5830     1.7730     3.6750 ho         1 DKX       0.417000
     26 H5          -0.4340     0.2750     2.5920 h1         1 DKX       0.075700
     27 H6          -0.2880     2.4770     3.7850 h1         1 DKX       0.039700
     28 H6A         -0.3720     3.2920     2.2170 h1         1 DKX       0.039700
     29 HO6         -2.4370     2.9450     3.3950 ho         1 DKX       0.407000
     30 H7           0.3240     1.9970    -1.7290 h4         1 DKX       0.165000
     31 H8          -0.4910     2.0890    -4.0290 ha         1 DKX       0.178000
     32 HN2         -2.1520    -1.7330    -3.5110 hn         1 DKX       0.366500
@<TRIPOS>BOND
     1     3     1 1
     2     1    11 1
     3     1     2 1
     4     1    20 1
     5    14     2 1
     6     2    18 1
     7     6     3 1
     8     5     3 1
     9     3    21 1
    10    18     4 1
    11    16     4 1
    12     5    22 1
    13     7     6 1
    14     6     8 1
    15     6    23 1
    16     9     8 1
    17     8    10 1
    18     8    24 1
    19     9    25 1
    20    10    12 1
    21    10    11 1
    22    10    26 1
    23    13    12 1
    24    12    27 1
    25    12    28 1
    26    13    29 1
    27    14    15 2
    28    14    30 1
    29    15    16 1
    30    15    31 1
    31    16    17 2
    32    18    19 2
    33     4    32 1
@<TRIPOS>SUBSTRUCTURE
     1 DKX         1 TEMP              0 ****  ****    0 ROOT
