@<TRIPOS>MOLECULE
DKX
   32    33     1     0     0
SMALL
bcc


@<TRIPOS>ATOM
      1 C1           0.0000     0.0000     0.0000 c3         1 DKX       0.216500
      2 N1          -0.4880     0.0580    -1.3800 n          1 DKX       0.068000
      3 C2           1.5310     0.0000     0.0000 c3         1 DKX       0.115100
      4 N2          -1.6410    -0.9520    -3.1500 ns         1 DKX      -0.123500
      5 O2           2.0090    -1.1670    -0.6720 oh         1 DKX      -0.563800
      6 C3           2.0340     0.0000     1.4480 c3         1 DKX       0.125600
      7 F3           3.4310     0.0720     1.4570 f          1 DKX      -0.222300
      8 C4           1.4520     1.2150     2.1780 c3         1 DKX       0.130100
      9 O4           1.8570     1.1850     3.5490 oh         1 DKX      -0.569800
     10 C5          -0.0750     1.1670     2.0940 c3         1 DKX       0.177100
     11 O5          -0.4750     1.1380     0.7220 os         1 DKX      -0.396600
     12 C6          -0.6620     2.4080     2.7710 c3         1 DKX       0.226400
     13 O6          -2.0880     2.3080     2.7950 oh         1 DKX      -0.579800
     14 C7          -0.2350     1.1660    -2.1430 cc         1 DKX      -0.085400
     15 C8          -0.6850     1.2190    -3.4140 cd         1 DKX      -0.295200
     16 C9          -1.4120     0.1210    -3.9330 c          1 DKX       0.612700
     17 O9          -1.8280     0.1460    -5.0780 o          1 DKX      -0.656500
     18 C10         -1.1760    -0.9800    -1.8870 c          1 DKX       0.595500
     19 O10         -1.3870    -1.9570    -1.1940 o          1 DKX      -0.697500
     20 H1          -0.3590    -0.9040     0.4770 h2         1 DKX       0.082700
     21 H2           1.8910     0.8880    -0.5060 h1         1 DKX       0.022700
     22 HO2          2.9060    -1.0360    -0.9290 ho         1 DKX       0.406000
     23 H3           1.7090    -0.9080     1.9420 h1         1 DKX       0.061700
     24 H4           1.8110     2.1230     1.7100 h1         1 DKX       0.021700
     25 HO4          2.5830     1.7730     3.6750 ho         1 DKX       0.403000
     26 H5          -0.4340     0.2750     2.5920 h1         1 DKX       0.040700
     27 H6          -0.2880     2.4770     3.7850 h1         1 DKX       0.000700
     28 H6A         -0.3720     3.2920     2.2170 h1         1 DKX       0.000700
     29 HO6         -2.4370     2.9450     3.3950 ho         1 DKX       0.393000
     30 H7           0.3240     1.9970    -1.7290 h4         1 DKX       0.135000
     31 H8          -0.4910     2.0890    -4.0290 ha         1 DKX       0.149000
     32 HN2         -2.1520    -1.7330    -3.5110 hn         1 DKX       0.207500
@<TRIPOS>BOND
     1     1     2 1   
     2     1     3 1   
     3     1    11 1   
     4     1    20 1   
     5     2    14 1   
     6     2    18 1   
     7     3     5 1   
     8     3     6 1   
     9     3    21 1   
    10     4    16 1   
    11     4    18 1   
    12     4    32 1   
    13     5    22 1   
    14     6     7 1   
    15     6     8 1   
    16     6    23 1   
    17     8     9 1   
    18     8    10 1   
    19     8    24 1   
    20     9    25 1   
    21    10    11 1   
    22    10    12 1   
    23    10    26 1   
    24    12    13 1   
    25    12    27 1   
    26    12    28 1   
    27    13    29 1   
    28    14    15 2   
    29    14    30 1   
    30    15    16 1   
    31    15    31 1   
    32    16    17 2   
    33    18    19 2   
@<TRIPOS>SUBSTRUCTURE
     1 DKX         1 TEMP              0 ****  ****    0 ROOT
