@<TRIPOS>MOLECULE
DKY
   45    47     1     0     0
SMALL
bcc


@<TRIPOS>ATOM
      1 C1           0.0000     0.0000     0.0000 c3         1 DKY       0.237500
      2 N1          -0.4870     0.0580    -1.3800 n          1 DKY       0.073000
      3 C2           1.5310     0.0000     0.0000 c3         1 DKY       0.097100
      4 N2          -0.6720     1.2260    -3.3900 nc         1 DKY      -0.570100
      5 O2           2.0090    -1.1660    -0.6720 oh         1 DKY      -0.588800
      6 C3           2.0330     0.0000     1.4470 c3         1 DKY       0.127600
      7 F3           3.4310     0.0720     1.4570 f          1 DKY      -0.224300
      8 C4           1.4520     1.2140     2.1790 c3         1 DKY       0.130100
      9 O4           1.8560     1.1840     3.5500 oh         1 DKY      -0.576800
     10 C5          -0.0760     1.1670     2.0950 c3         1 DKY       0.175100
     11 O5          -0.4750     1.1380     0.7220 os         1 DKY      -0.363600
     12 C6          -0.6630     2.4080     2.7700 c3         1 DKY       0.225400
     13 O6          -2.0870     2.3080     2.7950 oh         1 DKY      -0.584800
     14 C7          -1.1900    -0.9880    -1.8950 cc         1 DKY      -0.051400
     15 C8          -1.6360    -0.9220    -3.1720 cd         1 DKY      -0.390600
     16 C9          -1.3600     0.2310    -3.9340 cd         1 DKY       0.414200
     17 C10         -0.2450     1.1490    -2.1310 c          1 DKY       0.710900
     18 O10          0.3820     2.0790    -1.6520 o          1 DKY      -0.666500
     19 C11         -1.5360     1.4290    -5.9630 c          1 DKY       0.557700
     20 O11         -0.9070     2.3440    -5.4680 o          1 DKY      -0.535100
     21 C12         -2.0110     1.5300    -7.3590 ca         1 DKY      -0.162600
     22 C13         -1.7370     2.6740    -8.1120 ca         1 DKY      -0.058500
     23 C14         -2.1820     2.7600    -9.4150 ca         1 DKY      -0.109500
     24 C15         -2.8990     1.7170    -9.9750 ca         1 DKY      -0.076000
     25 C16         -3.1740     0.5820    -9.2340 ca         1 DKY      -0.109500
     26 C17         -2.7300     0.4790    -7.9330 ca         1 DKY      -0.058500
     27 H1          -0.3590    -0.9040     0.4770 h2         1 DKY       0.027700
     28 H2           1.8910     0.8880    -0.5060 h1         1 DKY       0.075700
     29 HO2          2.9210    -1.0550    -0.8850 ho         1 DKY       0.413000
     30 H3           1.7080    -0.9080     1.9410 h1         1 DKY       0.047700
     31 HN3         -2.3210    -0.4280    -5.6470 hn         1 DKY       0.176500
     32 H4           1.8110     2.1220     1.7100 h1         1 DKY       0.037700
     33 HO4          2.5810     1.7730     3.6770 ho         1 DKY       0.403000
     34 H5          -0.4360     0.2750     2.5920 h1         1 DKY       0.026700
     35 H6          -0.3730     3.2920     2.2160 h1         1 DKY       0.005200
     36 H6A         -0.2890     2.4770     3.7850 h1         1 DKY       0.005200
     37 HO6         -2.4340     2.9140     3.4280 ho         1 DKY       0.391000
     38 H7          -1.3900    -1.8650    -1.2910 h4         1 DKY       0.130000
     39 H8          -2.1970    -1.7430    -3.6020 ha         1 DKY       0.129000
     40 H13         -1.1760     3.4910    -7.6740 ha         1 DKY       0.113000
     41 H14         -1.9700     3.6460   -10.0010 ha         1 DKY       0.106500
     42 H15         -3.2480     1.7920   -10.9980 ha         1 DKY       0.103000
     43 H16         -3.7340    -0.2310    -9.6800 ha         1 DKY       0.106500
     44 H17         -2.9460    -0.4100    -7.3540 ha         1 DKY       0.113000
     45 N3          -1.8030     0.3250    -5.2390 ns         1 DKY      -0.029400
@<TRIPOS>BOND
     1     1     2 1   
     2     1     3 1   
     3     1    11 1   
     4     1    27 1   
     5     2    14 1   
     6     2    17 1   
     7     3     5 1   
     8     3     6 1   
     9     3    28 1   
    10     4    16 2   
    11     4    17 1   
    12     5    29 1   
    13     6     7 1   
    14     6     8 1   
    15     6    30 1   
    16     8     9 1   
    17     8    10 1   
    18     8    32 1   
    19     9    33 1   
    20    10    11 1   
    21    10    12 1   
    22    10    34 1   
    23    12    13 1   
    24    12    35 1   
    25    12    36 1   
    26    13    37 1   
    27    14    15 2   
    28    14    38 1   
    29    15    16 1   
    30    15    39 1   
    31    16    45 1   
    32    17    18 2   
    33    19    20 2   
    34    19    21 1   
    35    19    45 1   
    36    21    22 ar  
    37    21    26 ar  
    38    22    23 ar  
    39    22    40 1   
    40    23    24 ar  
    41    23    41 1   
    42    24    25 ar  
    43    24    42 1   
    44    25    26 ar  
    45    25    43 1   
    46    26    44 1   
    47    31    45 1   
@<TRIPOS>SUBSTRUCTURE
     1 DKY         1 TEMP              0 ****  ****    0 ROOT
