@<TRIPOS>MOLECULE
molecule
   45    47     1     0     0
SMALL
bcc


@<TRIPOS>ATOM
      1 C1           0.0000     0.0000     0.0000 c3         1 DKY       0.329500
      2 N1          -0.4870     0.0580    -1.3800 n          1 DKY      -0.344000
      3 C2           1.5310     0.0000     0.0000 c3         1 DKY       0.072100
      4 N2          -0.6720     1.2260    -3.3900 nc         1 DKY      -0.663100
      5 O2           2.0090    -1.1660    -0.6720 oh         1 DKY      -0.603800
      6 C3           2.0330     0.0000     1.4470 c3         1 DKY       0.120600
      7 F3           3.4310     0.0720     1.4570 f          1 DKY      -0.239300
      8 C4           1.4520     1.2140     2.1790 c3         1 DKY       0.088100
      9 O4           1.8560     1.1840     3.5500 oh         1 DKY      -0.597800
     10 C5          -0.0760     1.1670     2.0950 c3         1 DKY       0.154100
     11 O5          -0.4750     1.1380     0.7220 os         1 DKY      -0.382600
     12 C6          -0.6630     2.4080     2.7700 c3         1 DKY       0.153400
     13 O6          -2.0870     2.3080     2.7950 oh         1 DKY      -0.600800
     14 C7          -1.1900    -0.9880    -1.8950 cc         1 DKY       0.080600
     15 C8          -1.6360    -0.9220    -3.1720 cd         1 DKY      -0.421600
     16 C9          -1.3600     0.2310    -3.9340 cd         1 DKY       0.609200
     17 C10         -0.2450     1.1490    -2.1310 c          1 DKY       0.836900
     18 O10          0.3820     2.0790    -1.6520 o          1 DKY      -0.615500
     19 C11         -1.5360     1.4290    -5.9630 c          1 DKY       0.654700
     20 O11         -0.9070     2.3440    -5.4680 o          1 DKY      -0.499100
     21 C12         -2.0110     1.5300    -7.3590 ca         1 DKY      -0.150600
     22 C13         -1.7370     2.6740    -8.1120 ca         1 DKY      -0.085500
     23 C14         -2.1820     2.7600    -9.4150 ca         1 DKY      -0.136000
     24 C15         -2.8990     1.7170    -9.9750 ca         1 DKY      -0.103000
     25 C16         -3.1740     0.5820    -9.2340 ca         1 DKY      -0.136000
     26 C17         -2.7300     0.4790    -7.9330 ca         1 DKY      -0.085500
     27 H1          -0.3590    -0.9040     0.4770 h2         1 DKY       0.059700
     28 H2           1.8910     0.8880    -0.5060 h1         1 DKY       0.100700
     29 HO2          2.9210    -1.0550    -0.8850 ho         1 DKY       0.424000
     30 H3           1.7080    -0.9080     1.9410 h1         1 DKY       0.076700
     31 HN3         -2.3210    -0.4280    -5.6470 hn         1 DKY       0.333500
     32 H4           1.8110     2.1220     1.7100 h1         1 DKY       0.070700
     33 HO4          2.5810     1.7730     3.6770 ho         1 DKY       0.417000
     34 H5          -0.4360     0.2750     2.5920 h1         1 DKY       0.059700
     35 H6          -0.3730     3.2920     2.2160 h1         1 DKY       0.044200
     36 H6A         -0.2890     2.4770     3.7850 h1         1 DKY       0.044200
     37 HO6         -2.4340     2.9140     3.4280 ho         1 DKY       0.405000
     38 H7          -1.3900    -1.8650    -1.2910 h4         1 DKY       0.163000
     39 H8          -2.1970    -1.7430    -3.6020 ha         1 DKY       0.148000
     40 H13         -1.1760     3.4910    -7.6740 ha         1 DKY       0.140500
     41 H14         -1.9700     3.6460   -10.0010 ha         1 DKY       0.136000
     42 H15         -3.2480     1.7920   -10.9980 ha         1 DKY       0.134000
     43 H16         -3.7340    -0.2310    -9.6800 ha         1 DKY       0.136000
     44 H17         -2.9460    -0.4100    -7.3540 ha         1 DKY       0.140500
     45 N3          -1.8030     0.3250    -5.2390 ns         1 DKY      -0.469400
@<TRIPOS>BOND
     1     3     1 1
     2     1    11 1
     3     1     2 1
     4     1    27 1
     5    14     2 1
     6     2    17 1
     7     6     3 1
     8     5     3 1
     9     3    28 1
    10    17     4 1
    11    16     4 2
    12     5    29 1
    13     7     6 1
    14     6     8 1
    15     6    30 1
    16    16    45 1
    17    19    45 1
    18    45    31 1
    19     9     8 1
    20     8    10 1
    21     8    32 1
    22     9    33 1
    23    10    12 1
    24    10    11 1
    25    10    34 1
    26    13    12 1
    27    12    35 1
    28    12    36 1
    29    13    37 1
    30    14    15 2
    31    14    38 1
    32    15    16 1
    33    15    39 1
    34    17    18 2
    35    20    19 2
    36    19    21 1
    37    21    22 ar
    38    21    26 ar
    39    22    23 ar
    40    22    40 1
    41    23    24 ar
    42    23    41 1
    43    25    24 ar
    44    24    42 1
    45    26    25 ar
    46    25    43 1
    47    26    44 1
@<TRIPOS>SUBSTRUCTURE
     1 DKY         1 TEMP              0 ****  ****    0 ROOT
