@<TRIPOS>MOLECULE
molecule
   34    35     1     0     0
SMALL
bcc


@<TRIPOS>ATOM
      1 C1           0.0000     0.0000     0.0000 c3         1 DKZ       0.275500
      2 N1          -0.4890     0.0580    -1.3800 n          1 DKZ      -0.310000
      3 C2           1.5310     0.0000     0.0000 c3         1 DKZ       0.019100
      4 N2          -0.6750     1.2260    -3.3890 nc         1 DKZ      -0.602100
      5 O2           2.0090    -1.1660    -0.6730 oh         1 DKZ      -0.548800
      6 C3           2.0330     0.0000     1.4470 c3         1 DKZ       0.166600
      7 F3           3.4300     0.0730     1.4570 f          1 DKZ      -0.208300
      8 C4           1.4510     1.2140     2.1780 c3         1 DKZ       0.048100
      9 O4           1.8550     1.1850     3.5490 oh         1 DKZ      -0.538800
     10 C5          -0.0770     1.1660     2.0940 c3         1 DKZ       0.123100
     11 O5          -0.4760     1.1380     0.7220 os         1 DKZ      -0.399600
     12 C6          -0.6640     2.4070     2.7700 c3         1 DKZ       0.148400
     13 O6          -2.0890     2.3070     2.7950 oh         1 DKZ      -0.591800
     14 C7          -1.1920    -0.9900    -1.8950 cc         1 DKZ       0.164600
     15 C8          -1.6370    -0.9240    -3.1720 cd         1 DKZ      -0.471600
     16 C9          -1.3620     0.2300    -3.9340 cd         1 DKZ       0.552500
     17 C10         -0.2460     1.1480    -2.1310 c          1 DKZ       0.819900
     18 O10          0.3800     2.0790    -1.6520 o          1 DKZ      -0.523500
     19 H1          -0.3590    -0.9040     0.4770 h2         1 DKZ       0.080700
     20 H2           1.6230     0.9420    -0.5260 h1         1 DKZ       0.103700
     21 HO2          2.3330    -0.4070    -1.1290 ho         1 DKZ       0.425000
     22 H3           1.7090    -0.9080     1.9420 h1         1 DKZ       0.092700
     23 HN3         -1.7990    -0.5700    -4.7820 hn         1 DKZ       0.511133
     24 HN3A        -2.6920     0.7570    -5.3870 hn         1 DKZ       0.511133
     25 H4           1.8090     2.1220     1.7090 h1         1 DKZ       0.067700
     26 HO4          2.1770     1.9820     3.1620 ho         1 DKZ       0.421000
     27 H5          -0.4370     0.2740     2.5910 h1         1 DKZ       0.071700
     28 H6          -0.2540     3.0920     2.0370 h1         1 DKZ       0.055200
     29 H6A         -0.2420     2.5660     3.7550 h1         1 DKZ       0.055200
     30 HO6         -2.4480     3.0530     3.2470 ho         1 DKZ       0.421000
     31 H7          -1.3910    -1.8660    -1.2900 h4         1 DKZ       0.211000
     32 H8          -2.1980    -1.7450    -3.6020 ha         1 DKZ       0.187000
     33 N3          -1.8030     0.3240    -5.2330 nz         1 DKZ      -0.846600
     34 H33         -1.1150     0.4840    -5.9420 hn         1 DKZ       0.511133
@<TRIPOS>BOND
     1     3     1 1
     2     1    11 1
     3     1     2 1
     4     1    19 1
     5    14     2 1
     6     2    17 1
     7     6     3 1
     8     5     3 1
     9     3    20 1
    10    17     4 1
    11    16     4 2
    12     5    21 1
    13     7     6 1
    14     6     8 1
    15     6    22 1
    16    16    33 1
    17    33    23 1
    18    33    24 1
    19     9     8 1
    20     8    10 1
    21     8    25 1
    22     9    26 1
    23    10    12 1
    24    10    11 1
    25    10    27 1
    26    13    12 1
    27    12    28 1
    28    12    29 1
    29    13    30 1
    30    14    15 2
    31    14    31 1
    32    15    16 1
    33    15    32 1
    34    17    18 2
    35    34    33 1
@<TRIPOS>SUBSTRUCTURE
     1 DKZ         1 TEMP              0 ****  ****    0 ROOT
