@<TRIPOS>MOLECULE
DKZ
   34    36     1     0     0
SMALL
bcc


@<TRIPOS>ATOM
      1 C1           0.0000     0.0000     0.0000 c3         1 DKZ       0.027000
      2 N1          -0.4890     0.0580    -1.3800 n          1 DKZ       0.246000
      3 C2           1.5310     0.0000     0.0000 c3         1 DKZ      -0.059000
      4 N2          -0.6750     1.2260    -3.3890 n2         1 DKZ      -0.050000
      5 O2           2.0090    -1.1660    -0.6730 oh         1 DKZ      -0.284000
      6 C3           2.0330     0.0000     1.4470 c3         1 DKZ       0.062000
      7 F3           3.4300     0.0730     1.4570 f          1 DKZ      -0.130000
      8 C4           1.4510     1.2140     2.1780 c3         1 DKZ      -0.010000
      9 O4           1.8550     1.1850     3.5490 oh         1 DKZ      -0.274000
     10 C5          -0.0770     1.1660     2.0940 c3         1 DKZ       0.036000
     11 O5          -0.4760     1.1380     0.7220 os         1 DKZ      -0.233000
     12 C6          -0.6640     2.4070     2.7700 c3         1 DKZ       0.070000
     13 O6          -2.0890     2.3070     2.7950 oh         1 DKZ      -0.304000
     14 C7          -1.1920    -0.9900    -1.8950 c2         1 DKZ       0.021000
     15 C8          -1.6370    -0.9240    -3.1720 c2         1 DKZ      -0.315000
     16 C9          -1.3620     0.2300    -3.9340 c3         1 DKZ      -0.229000
     17 C10         -0.2460     1.1480    -2.1310 c2         1 DKZ       0.193000
     18 O10          0.3800     2.0790    -1.6520 o          1 DKZ      -0.300000
     19 H1          -0.3590    -0.9040     0.4770 h2         1 DKZ       0.090000
     20 H2           1.6230     0.9420    -0.5260 h1         1 DKZ       0.119000
     21 HO2          2.3330    -0.4070    -1.1290 ho         1 DKZ       0.223000
     22 H3           1.7090    -0.9080     1.9420 h1         1 DKZ       0.098000
     23 HN3         -1.7990    -0.5700    -4.7820 DU         1 DKZ       0.112000
     24 HN3A        -2.6920     0.7570    -5.3870 hn         1 DKZ       0.057000
     25 H4           1.8090     2.1220     1.7090 h1         1 DKZ       0.073000
     26 HO4          2.1770     1.9820     3.1620 ho         1 DKZ       0.220000
     27 H5          -0.4370     0.2740     2.5910 h1         1 DKZ       0.078000
     28 H6          -0.2540     3.0920     2.0370 h1         1 DKZ       0.054500
     29 H6A         -0.2420     2.5660     3.7550 h1         1 DKZ       0.054500
     30 HO6         -2.4480     3.0530     3.2470 ho         1 DKZ       0.205000
     31 H7          -1.3910    -1.8660    -1.2900 h4         1 DKZ       0.164000
     32 H8          -2.1980    -1.7450    -3.6020 ha         1 DKZ       0.163000
     33 N3          -1.8030     0.3240    -5.2330 nz         1 DKZ       0.765000
     34 H33         -1.1150     0.4840    -5.9420 hn         1 DKZ       0.057000
@<TRIPOS>BOND
     1     1     2 1   
     2     1     3 1   
     3     1    11 1   
     4     1    19 1   
     5     2    14 1   
     6     2    17 1   
     7     3     5 1   
     8     3     6 1   
     9     3    20 1   
    10     4    16 1   
    11     4    17 1   
    12     5    21 1   
    13     6     7 1   
    14     6     8 1   
    15     6    22 1   
    16     8     9 1   
    17     8    10 1   
    18     8    25 1   
    19     9    26 1   
    20    10    11 1   
    21    10    12 1   
    22    10    27 1   
    23    12    13 1   
    24    12    28 1   
    25    12    29 1   
    26    13    30 1   
    27    14    15 1   
    28    14    31 1   
    29    15    16 1   
    30    15    32 1   
    31    16    23 1   
    32    16    33 1   
    33    17    18 1   
    34    23    33 1   
    35    24    33 1   
    36    33    34 1   
@<TRIPOS>SUBSTRUCTURE
     1 DKZ         1 TEMP              0 ****  ****    0 ROOT
