@<TRIPOS>MOLECULE
DL1
   49    52     1     0     0
SMALL
bcc


@<TRIPOS>ATOM
      1 CAM          0.0000     0.0000     0.0000 c3         1 DL1       0.095300
      2 CAK          1.5320     0.0000     0.0000 c3         1 DL1       0.212900
      3 OAS          2.0040     0.0000     1.3510 os         1 DL1      -0.410600
      4 CAL          1.5510    -1.1190     2.1180 c3         1 DL1       0.212900
      5 CAN          0.0200    -1.1300     2.1400 c3         1 DL1       0.095300
      6 NBB         -0.4850    -1.1630     0.7590 nh         1 DL1      -0.361000
      7 CAV         -1.8820    -1.2280     0.7370 ca         1 DL1       0.049600
      8 CAJ         -2.5560    -1.2730    -0.4760 ca         1 DL1      -0.222000
      9 CBA         -3.9380    -1.3400    -0.4960 ca         1 DL1       0.145100
     10 OAT         -4.6010    -1.3840    -1.6840 os         1 DL1      -0.316900
     11 CAA         -3.8060    -1.3600    -2.8700 c3         1 DL1       0.248700
     12 CAH         -2.5940    -1.2550     1.9300 ca         1 DL1      -0.185000
     13 CAI         -3.9740    -1.3210     1.9110 ca         1 DL1      -0.055000
     14 CAY         -4.6510    -1.3610     0.7010 ca         1 DL1      -0.152400
     15 NAQ         -6.0510    -1.4270     0.6830 ns         1 DL1       0.018900
     16 CAU         -6.7610    -0.9630     1.7310 c          1 DL1       0.466600
     17 OAB         -6.1960    -0.3980     2.6460 o          1 DL1      -0.649100
     18 CAW         -8.2320    -1.1440     1.7670 ca         1 DL1       0.319800
     19 NAP         -8.8410    -1.7670     0.7670 nb         1 DL1      -0.549000
     20 CAE         -8.9590    -0.6620     2.8550 ca         1 DL1      -0.151300
     21 CAC        -10.3350    -0.8350     2.8800 ca         1 DL1      -0.070000
     22 CAF        -10.9410    -1.4840     1.8200 ca         1 DL1      -0.207300
     23 CAX        -10.1540    -1.9490     0.7620 ca         1 DL1       0.462800
     24 CAZ        -10.7910    -2.6490    -0.3730 cc         1 DL1      -0.319800
     25 NAR        -12.1220    -2.9070    -0.5180 na         1 DL1       0.448400
     26 NAO        -12.2940    -3.5860    -1.7310 nc         1 DL1      -0.651800
     27 CAD        -11.1220    -3.7320    -2.2960 cd         1 DL1       0.388200
     28 CAG        -10.1570    -3.1500    -1.4750 cd         1 DL1      -0.284300
     29 H1          -0.3610    -0.0590    -1.0200 h1         1 DL1       0.027450
     30 H2          -0.3610     0.9100     0.4650 h1         1 DL1       0.027450
     31 H3           1.8920    -0.8860    -0.5080 h1         1 DL1       0.013450
     32 H4           1.8920     0.8860    -0.5080 h1         1 DL1       0.013450
     33 H5           1.9260    -1.0370     3.1310 h1         1 DL1       0.013450
     34 H6           1.9120    -2.0350     1.6660 h1         1 DL1       0.013450
     35 H7          -0.3400    -0.2360     2.6340 h1         1 DL1       0.027450
     36 H8          -0.3260    -2.0080     2.6710 h1         1 DL1       0.027450
     37 H9          -1.9980    -1.3260    -1.4040 ha         1 DL1       0.132000
     38 H10         -3.1290    -2.2060    -2.8690 h1         1 DL1      -0.001633
     39 H11         -4.4510    -1.4150    -3.7380 h1         1 DL1      -0.001633
     40 H12         -3.2340    -0.4400    -2.9040 h1         1 DL1      -0.001633
     41 H13         -2.0670    -1.2240     2.8750 ha         1 DL1       0.126000
     42 H14         -4.5270    -1.3400     2.8430 ha         1 DL1       0.155000
     43 H15         -6.5230    -1.8410    -0.0960 hn         1 DL1       0.190500
     44 H16         -8.4550    -0.1580     3.6700 ha         1 DL1       0.140000
     45 H17        -10.9230    -0.4670     3.7130 ha         1 DL1       0.114000
     46 H18        -12.0130    -1.6350     1.8110 ha         1 DL1       0.108000
     47 H19        -12.8460    -2.6580     0.1260 hn         1 DL1       0.148700
     48 H20        -10.9340    -4.2180    -3.2460 h4         1 DL1       0.004100
     49 H21         -9.0920    -3.1100    -1.6710 ha         1 DL1       0.144000
@<TRIPOS>BOND
     1     1     2 1   
     2     1     6 1   
     3     1    29 1   
     4     1    30 1   
     5     2     3 1   
     6     2    31 1   
     7     2    32 1   
     8     3     4 1   
     9     4     5 1   
    10     4    33 1   
    11     4    34 1   
    12     5     6 1   
    13     5    35 1   
    14     5    36 1   
    15     6     7 1   
    16     7     8 ar  
    17     7    12 ar  
    18     8     9 ar  
    19     8    37 1   
    20     9    10 1   
    21     9    14 ar  
    22    10    11 1   
    23    11    38 1   
    24    11    39 1   
    25    11    40 1   
    26    12    13 ar  
    27    12    41 1   
    28    13    14 ar  
    29    13    42 1   
    30    14    15 1   
    31    15    16 1   
    32    15    43 1   
    33    16    17 2   
    34    16    18 1   
    35    18    19 ar  
    36    18    20 ar  
    37    19    23 ar  
    38    20    21 ar  
    39    20    44 1   
    40    21    22 ar  
    41    21    45 1   
    42    22    23 ar  
    43    22    46 1   
    44    23    24 1   
    45    24    25 1   
    46    24    28 2   
    47    25    26 1   
    48    25    47 1   
    49    26    27 2   
    50    27    28 1   
    51    27    48 1   
    52    28    49 1   
@<TRIPOS>SUBSTRUCTURE
     1 DL1         1 TEMP              0 ****  ****    0 ROOT
