@<TRIPOS>MOLECULE
molecule
   49    52     1     0     0
SMALL
bcc


@<TRIPOS>ATOM
      1 CAM          0.0000     0.0000     0.0000 c3         1 DL1       0.126300
      2 CAK          1.5320     0.0000     0.0000 c3         1 DL1       0.136400
      3 OAS          2.0040     0.0000     1.3510 os         1 DL1      -0.422600
      4 CAL          1.5510    -1.1190     2.1180 c3         1 DL1       0.136400
      5 CAN          0.0200    -1.1300     2.1400 c3         1 DL1       0.126300
      6 NBB         -0.4850    -1.1630     0.7590 nh         1 DL1      -0.596000
      7 CAV         -1.8820    -1.2280     0.7370 ca         1 DL1       0.122600
      8 CAJ         -2.5560    -1.2730    -0.4760 ca         1 DL1      -0.227000
      9 CBA         -3.9380    -1.3400    -0.4960 ca         1 DL1       0.129100
     10 OAT         -4.6010    -1.3840    -1.6840 os         1 DL1      -0.335900
     11 CAA         -3.8060    -1.3600    -2.8700 c3         1 DL1       0.130700
     12 CAH         -2.5940    -1.2550     1.9300 ca         1 DL1      -0.200000
     13 CAI         -3.9740    -1.3210     1.9110 ca         1 DL1      -0.082000
     14 CAY         -4.6510    -1.3610     0.7010 ca         1 DL1       0.006600
     15 NAQ         -6.0510    -1.4270     0.6830 ns         1 DL1      -0.438100
     16 CAU         -6.7610    -0.9630     1.7310 c          1 DL1       0.575600
     17 OAB         -6.1960    -0.3980     2.6460 o          1 DL1      -0.603100
     18 CAW         -8.2320    -1.1440     1.7670 ca         1 DL1       0.381800
     19 NAP         -8.8410    -1.7670     0.7670 nb         1 DL1      -0.671000
     20 CAE         -8.9590    -0.6620     2.8550 ca         1 DL1      -0.189300
     21 CAC        -10.3350    -0.8350     2.8800 ca         1 DL1      -0.096000
     22 CAF        -10.9410    -1.4840     1.8200 ca         1 DL1      -0.229300
     23 CAX        -10.1540    -1.9490     0.7620 ca         1 DL1       0.498800
     24 CAZ        -10.7910    -2.6490    -0.3730 cc         1 DL1      -0.142800
     25 NAR        -12.1220    -2.9070    -0.5180 na         1 DL1      -0.044600
     26 NAO        -12.2940    -3.5860    -1.7310 nd         1 DL1      -0.495800
     27 CAD        -11.1220    -3.7320    -2.2960 cc         1 DL1       0.326200
     28 CAG        -10.1570    -3.1500    -1.4750 cc         1 DL1      -0.293300
     29 H1          -0.3610    -0.0590    -1.0200 h1         1 DL1       0.052450
     30 H2          -0.3610     0.9100     0.4650 h1         1 DL1       0.052450
     31 H3           1.8920    -0.8860    -0.5080 h1         1 DL1       0.054950
     32 H4           1.8920     0.8860    -0.5080 h1         1 DL1       0.054950
     33 H5           1.9260    -1.0370     3.1310 h1         1 DL1       0.054950
     34 H6           1.9120    -2.0350     1.6660 h1         1 DL1       0.054950
     35 H7          -0.3400    -0.2360     2.6340 h1         1 DL1       0.052450
     36 H8          -0.3260    -2.0080     2.6710 h1         1 DL1       0.052450
     37 H9          -1.9980    -1.3260    -1.4040 ha         1 DL1       0.144000
     38 H10         -3.1290    -2.2060    -2.8690 h1         1 DL1       0.042033
     39 H11         -4.4510    -1.4150    -3.7380 h1         1 DL1       0.042033
     40 H12         -3.2340    -0.4400    -2.9040 h1         1 DL1       0.042033
     41 H13         -2.0670    -1.2240     2.8750 ha         1 DL1       0.142000
     42 H14         -4.5270    -1.3400     2.8430 ha         1 DL1       0.176000
     43 H15         -6.5230    -1.8410    -0.0960 hn         1 DL1       0.353500
     44 H16         -8.4550    -0.1580     3.6700 ha         1 DL1       0.168000
     45 H17        -10.9230    -0.4670     3.7130 ha         1 DL1       0.148000
     46 H18        -12.0130    -1.6350     1.8110 ha         1 DL1       0.135000
     47 H19        -12.8460    -2.6580     0.1260 hn         1 DL1       0.328700
     48 H20        -10.9340    -4.2180    -3.2460 h4         1 DL1       0.051100
     49 H21         -9.0920    -3.1100    -1.6710 ha         1 DL1       0.169000
@<TRIPOS>BOND
     1     4     5 1
     2     4     3 1
     3     5     6 1
     4     3     2 1
     5     2     1 1
     6     6     7 1
     7     6     1 1
     8    11    10 1
     9     8     7 ar
    10     8     9 ar
    11     7    12 ar
    12    10     9 1
    13     9    14 ar
    14    12    13 ar
    15    14    13 ar
    16    14    15 1
    17    27    28 1
    18    27    26 2
    19    15    16 1
    20    28    24 2
    21    16    17 2
    22    16    18 1
    23    26    25 1
    24    19    18 ar
    25    19    23 ar
    26    24    23 1
    27    24    25 1
    28    18    20 ar
    29    23    22 ar
    30    20    21 ar
    31    22    21 ar
    32     1    29 1
    33     1    30 1
    34     2    31 1
    35     2    32 1
    36     4    33 1
    37     4    34 1
    38     5    35 1
    39     5    36 1
    40     8    37 1
    41    11    38 1
    42    11    39 1
    43    11    40 1
    44    12    41 1
    45    13    42 1
    46    15    43 1
    47    20    44 1
    48    21    45 1
    49    22    46 1
    50    25    47 1
    51    27    48 1
    52    28    49 1
@<TRIPOS>SUBSTRUCTURE
     1 DL1         1 TEMP              0 ****  ****    0 ROOT
