@<TRIPOS>MOLECULE
molecule
   42    45     1     0     0
SMALL
bcc


@<TRIPOS>ATOM
      1 C10          0.0000     0.0000     0.0000 c3         1 DL2      -0.109400
      2 C11          1.5330     0.0000     0.0000 c3         1 DL2       0.110000
      3 C13          2.8680     0.9400     1.8230 c          1 DL2       0.649100
      4 C15          4.2940     2.0760     3.4770 c2         1 DL2       0.496300
      5 C17          5.4110     3.9240     2.6510 c          1 DL2       0.694700
      6 C19          4.9190     2.2930     4.8350 c3         1 DL2      -0.161500
      7 C21          1.5170    -1.0420     2.3050 c3         1 DL2       0.110000
      8 C22         -0.0170    -1.0360     2.2870 c3         1 DL2      -0.109400
      9 C23          6.0870     4.2280     3.9180 ce         1 DL2      -0.096800
     10 C25          5.8660     3.4640     4.9930 c2         1 DL2      -0.130200
     11 C1          -1.1490    -3.7220    -1.5730 ca         1 DL2      -0.113500
     12 C2          -1.1130    -2.7970    -0.5430 ca         1 DL2       0.046600
     13 C3          -2.2570    -2.0650    -0.2300 ca         1 DL2       0.046600
     14 C4          -3.4220    -2.2650    -0.9500 ca         1 DL2      -0.113500
     15 C5          -3.4500    -3.1900    -1.9770 ca         1 DL2      -0.125500
     16 C6          -2.3160    -3.9160    -2.2890 ca         1 DL2      -0.125500
     17 O7          -1.9670    -1.2280     0.8110 os         1 DL2      -0.320400
     18 C8          -0.5070    -1.1610     0.8490 c3         1 DL2       0.340600
     19 O9          -0.1090    -2.4210     0.3020 os         1 DL2      -0.320400
     20 N12          2.0040     0.0000     1.3910 n          1 DL2      -0.503800
     21 C14          3.3430     0.9280     3.2530 c3         1 DL2      -0.197700
     22 N16          4.5770     2.8850     2.5080 ne         1 DL2      -0.591100
     23 O18          5.6270     4.6350     1.6880 o          1 DL2      -0.465100
     24 O20          3.2630     1.7970     1.0600 o          1 DL2      -0.530100
     25 Cl           7.1540     5.5930     4.0270 cl         1 DL2      -0.078400
     26 H1          -0.3600    -0.1120    -1.0160 hc         1 DL2       0.072700
     27 H2          -0.3600     0.9330     0.4150 hc         1 DL2       0.072700
     28 H3           1.8950     0.8870    -0.5050 h1         1 DL2       0.065450
     29 H4           1.8950    -0.8870    -0.5050 h1         1 DL2       0.065450
     30 H5           5.4640     1.3930     5.0940 hc         1 DL2       0.079700
     31 H6           4.1160     2.4210     5.5500 hc         1 DL2       0.079700
     32 H7           1.8790    -2.0090     1.9780 h1         1 DL2       0.065450
     33 H8           1.8680    -0.8360     3.3090 h1         1 DL2       0.065450
     34 H9          -0.3870    -1.8720     2.8670 hc         1 DL2       0.072700
     35 H10         -0.3780    -0.1070     2.7110 hc         1 DL2       0.072700
     36 H11          6.3500     3.6720     5.9400 ha         1 DL2       0.158000
     37 H12         -0.2620    -4.2930    -1.8200 ha         1 DL2       0.143500
     38 H13         -4.3120    -1.6970    -0.7080 ha         1 DL2       0.143500
     39 H14         -4.3620    -3.3450    -2.5400 ha         1 DL2       0.139000
     40 H15         -2.3430    -4.6390    -3.0950 ha         1 DL2       0.139000
     41 H16          3.8500    -0.0070     3.4570 hc         1 DL2       0.080700
     42 H17          2.4920     1.0300     3.9160 hc         1 DL2       0.080700
@<TRIPOS>BOND
     1    11    12 ar
     2    11    16 ar
     3    19    12 1
     4    19    18 1
     5    12    13 ar
     6    16    15 ar
     7    21     3 1
     8    21     4 1
     9     8    18 1
    10     8     7 1
    11     2     1 1
    12     2    20 1
    13    18     1 1
    14    18    17 1
    15     3    24 2
    16     3    20 1
    17    20     7 1
    18    22     4 2
    19    22     5 1
    20    13    17 1
    21    13    14 ar
    22    15    14 ar
    23     4     6 1
    24    23     5 2
    25     5     9 1
    26     6    10 1
    27     9    10 2
    28     9    25 1
    29     1    26 1
    30     1    27 1
    31     2    28 1
    32     2    29 1
    33     6    30 1
    34     6    31 1
    35     7    32 1
    36     7    33 1
    37     8    34 1
    38     8    35 1
    39    10    36 1
    40    11    37 1
    41    14    38 1
    42    15    39 1
    43    16    40 1
    44    21    41 1
    45    21    42 1
@<TRIPOS>SUBSTRUCTURE
     1 DL2         1 TEMP              0 ****  ****    0 ROOT
