@<TRIPOS>MOLECULE
DL2
   42    45     1     0     0
SMALL
bcc


@<TRIPOS>ATOM
      1 C10          0.0000     0.0000     0.0000 c3         1 DL2      -0.066900
      2 C11          1.5330     0.0000     0.0000 c3         1 DL2       0.057000
      3 C13          2.8680     0.9400     1.8230 c          1 DL2       0.571100
      4 C15          4.2940     2.0760     3.4770 c2         1 DL2       0.417300
      5 C17          5.4110     3.9240     2.6510 c          1 DL2       0.689700
      6 C19          4.9190     2.2930     4.8350 c3         1 DL2      -0.069500
      7 C21          1.5170    -1.0420     2.3050 c3         1 DL2       0.057000
      8 C22         -0.0170    -1.0360     2.2870 c3         1 DL2      -0.066900
      9 C23          6.0870     4.2280     3.9180 ce         1 DL2      -0.172800
     10 C25          5.8660     3.4640     4.9930 c2         1 DL2      -0.105200
     11 C1          -1.1490    -3.7220    -1.5730 ca         1 DL2      -0.087000
     12 C2          -1.1130    -2.7970    -0.5430 ca         1 DL2       0.052600
     13 C3          -2.2570    -2.0650    -0.2300 ca         1 DL2       0.052600
     14 C4          -3.4220    -2.2650    -0.9500 ca         1 DL2      -0.087000
     15 C5          -3.4500    -3.1900    -1.9770 ca         1 DL2      -0.099500
     16 C6          -2.3160    -3.9160    -2.2890 ca         1 DL2      -0.099500
     17 O7          -1.9670    -1.2280     0.8110 os         1 DL2      -0.301900
     18 C8          -0.5070    -1.1610     0.8490 c3         1 DL2       0.360600
     19 O9          -0.1090    -2.4210     0.3020 os         1 DL2      -0.301900
     20 N12          2.0040     0.0000     1.3910 n          1 DL2      -0.174800
     21 C14          3.3430     0.9280     3.2530 c3         1 DL2      -0.134700
     22 N16          4.5770     2.8850     2.5080 ne         1 DL2      -0.472100
     23 O18          5.6270     4.6350     1.6880 o          1 DL2      -0.507100
     24 O20          3.2630     1.7970     1.0600 o          1 DL2      -0.574100
     25 Cl           7.1540     5.5930     4.0270 cl         1 DL2       0.020600
     26 H1          -0.3600    -0.1120    -1.0160 hc         1 DL2       0.040950
     27 H2          -0.3600     0.9330     0.4150 hc         1 DL2       0.040950
     28 H3           1.8950     0.8870    -0.5050 h1         1 DL2       0.036450
     29 H4           1.8950    -0.8870    -0.5050 h1         1 DL2       0.036450
     30 H5           5.4640     1.3930     5.0940 hc         1 DL2       0.040700
     31 H6           4.1160     2.4210     5.5500 hc         1 DL2       0.040700
     32 H7           1.8790    -2.0090     1.9780 h1         1 DL2       0.036450
     33 H8           1.8680    -0.8360     3.3090 h1         1 DL2       0.036450
     34 H9          -0.3870    -1.8720     2.8670 hc         1 DL2       0.040950
     35 H10         -0.3780    -0.1070     2.7110 hc         1 DL2       0.040950
     36 H11          6.3500     3.6720     5.9400 ha         1 DL2       0.126000
     37 H12         -0.2620    -4.2930    -1.8200 ha         1 DL2       0.111500
     38 H13         -4.3120    -1.6970    -0.7080 ha         1 DL2       0.111500
     39 H14         -4.3620    -3.3450    -2.5400 ha         1 DL2       0.108000
     40 H15         -2.3430    -4.6390    -3.0950 ha         1 DL2       0.108000
     41 H16          3.8500    -0.0070     3.4570 hc         1 DL2       0.041700
     42 H17          2.4920     1.0300     3.9160 hc         1 DL2       0.041700
@<TRIPOS>BOND
     1     1     2 1   
     2     1    18 1   
     3     1    26 1   
     4     1    27 1   
     5     2    20 1   
     6     2    28 1   
     7     2    29 1   
     8     3    20 1   
     9     3    21 1   
    10     3    24 2   
    11     4     6 1   
    12     4    21 1   
    13     4    22 2   
    14     5     9 1   
    15     5    22 1   
    16     5    23 2   
    17     6    10 1   
    18     6    30 1   
    19     6    31 1   
    20     7     8 1   
    21     7    20 1   
    22     7    32 1   
    23     7    33 1   
    24     8    18 1   
    25     8    34 1   
    26     8    35 1   
    27     9    10 2   
    28     9    25 1   
    29    10    36 1   
    30    11    12 ar  
    31    11    16 ar  
    32    11    37 1   
    33    12    13 ar  
    34    12    19 1   
    35    13    14 ar  
    36    13    17 1   
    37    14    15 ar  
    38    14    38 1   
    39    15    16 ar  
    40    15    39 1   
    41    16    40 1   
    42    17    18 1   
    43    18    19 1   
    44    21    41 1   
    45    21    42 1   
@<TRIPOS>SUBSTRUCTURE
     1 DL2         1 TEMP              0 ****  ****    0 ROOT
