@<TRIPOS>MOLECULE
DL3
   82    86     1     0     0
SMALL
bcc


@<TRIPOS>ATOM
      1 C4           0.0000     0.0000     0.0000 ca         1 DL3       0.422600
      2 C5           1.3860     0.0000     0.0000 ca         1 DL3      -0.419600
      3 C6           2.0490     0.0000     1.2160 ca         1 DL3       0.489200
      4 N1           1.3450    -0.0010     2.3360 nb         1 DL3      -0.698000
      5 N3          -0.6440    -0.0010     1.1560 nb         1 DL3      -0.648000
      6 CBQ          0.0320    -0.0020     4.7700 c3         1 DL3       0.202100
      7 C2           0.0200    -0.0000     2.3020 ca         1 DL3       0.717900
      8 CAA         -0.7640     0.0060    -1.2990 c3         1 DL3       0.187500
      9 NAH         -1.1400    -1.3660    -1.6500 n3         1 DL3      -0.519500
     10 CAI         -0.1760    -2.2410    -2.3210 c3         1 DL3       0.223800
     11 CAJ          0.1580    -1.6680    -3.7000 c3         1 DL3      -0.081700
     12 CAK         -1.1120    -1.6180    -4.5550 c3         1 DL3      -0.034900
     13 CAL         -0.7610    -1.1020    -5.9530 c3         1 DL3       0.149800
     14 NAM          0.2290    -1.9930    -6.5690 n7         1 DL3      -0.578200
     15 CAN          1.4750    -2.0220    -5.7920 c3         1 DL3       0.149800
     16 CAO          1.1900    -2.5640    -4.3900 c3         1 DL3      -0.034900
     17 SAP         -2.6560    -1.9270    -1.2880 sy         1 DL3       1.045200
     18 OAQ         -2.5550    -3.3420    -1.2210 o          1 DL3      -0.572300
     19 OAR         -3.1330    -1.1300    -0.2130 o          1 DL3      -0.572300
     20 CAS         -3.6880    -1.5680    -2.6720 ca         1 DL3      -0.116500
     21 CAX         -4.3660    -0.3640    -2.7330 ca         1 DL3      -0.028500
     22 CAW         -5.1720    -0.0800    -3.8200 ca         1 DL3      -0.029500
     23 CAT         -3.8160    -2.4860    -3.6960 ca         1 DL3      -0.028500
     24 CAU         -4.6260    -2.2040    -4.7800 ca         1 DL3      -0.029500
     25 CAV         -5.2990    -0.9990    -4.8450 ca         1 DL3      -0.115500
     26 SAY         -6.3270    -0.6370    -6.2290 sy         1 DL3       1.049200
     27 OAZ         -6.6980    -1.8880    -6.7920 o          1 DL3      -0.584800
     28 OBA         -7.2720     0.3270    -5.7860 o          1 DL3      -0.584800
     29 NBB         -5.3800     0.1210    -7.3580 n3         1 DL3      -0.517500
     30 CBE         -5.2530     1.5800    -7.3460 c3         1 DL3       0.209500
     31 CBF         -5.8890     2.1740    -8.6150 c3         1 DL3      -0.060900
     32 CBG         -4.7640     2.9150    -9.3660 c3         1 DL3      -0.034900
     33 CBH         -3.4640     2.2370    -8.8680 c3         1 DL3      -0.034900
     34 CBI         -3.7650     1.9820    -7.3700 c3         1 DL3      -0.060900
     35 CBC         -4.6700    -0.6690    -8.3670 c3         1 DL3       0.282100
     36 CBD         -5.5240    -0.7900    -9.6020 ca         1 DL3      -0.128300
     37 CBJ         -6.5150    -1.7520    -9.6660 ca         1 DL3      -0.092500
     38 CBK         -7.3020    -1.8600   -10.7960 ca         1 DL3      -0.102500
     39 CBL         -7.0980    -1.0050   -11.8650 ca         1 DL3      -0.028600
     40 Cl          -8.0880    -1.1390   -13.2860 cl         1 DL3      -0.031400
     41 CBM         -6.1070    -0.0420   -11.8010 ca         1 DL3      -0.102500
     42 CBN         -5.3200     0.0650   -10.6700 ca         1 DL3      -0.092500
     43 H1           1.9390     0.0010    -0.9310 ha         1 DL3       0.122000
     44 H2           3.1320    -0.0000     1.2500 h4         1 DL3      -0.021900
     45 H3          -0.6810    -0.0030     5.5850 h1         1 DL3       0.008367
     46 H4           0.6550    -0.8860     4.8340 h1         1 DL3       0.008367
     47 H5           0.6540     0.8830     4.8350 h1         1 DL3       0.008367
     48 H6          -1.6860     0.0020     3.4810 hn         1 DL3       0.304800
     49 H7          -1.6580     0.6090    -1.1890 h1         1 DL3       0.029700
     50 H8          -0.1420     0.4220    -2.0820 h1         1 DL3       0.029700
     51 H9          -0.6030    -3.2300    -2.4350 h1         1 DL3       0.036700
     52 H10          0.7280    -2.3040    -1.7280 h1         1 DL3       0.036700
     53 H11          0.5610    -0.6690    -3.5950 hc         1 DL3       0.031700
     54 H12         -1.8300    -0.9500    -4.0940 hc         1 DL3       0.026450
     55 H13         -1.5340    -2.6130    -4.6330 hc         1 DL3       0.026450
     56 H14         -0.3470    -0.1030    -5.8740 h1         1 DL3       0.003700
     57 H15         -1.6550    -1.0800    -6.5630 h1         1 DL3       0.003700
     58 H16          0.4240    -1.6820    -7.5000 hn         1 DL3       0.251800
     59 H18          1.8740    -1.0170    -5.7150 h1         1 DL3       0.003700
     60 H19          2.1930    -2.6640    -6.2870 h1         1 DL3       0.003700
     61 H20          2.1070    -2.5680    -3.8120 hc         1 DL3       0.026450
     62 H21          0.8000    -3.5720    -4.4650 hc         1 DL3       0.026450
     63 H22         -4.2670     0.3560    -1.9300 ha         1 DL3       0.131500
     64 H23         -5.7010     0.8640    -3.8690 ha         1 DL3       0.128500
     65 H24         -3.2880    -3.4310    -3.6450 ha         1 DL3       0.131500
     66 H25         -4.7260    -2.9240    -5.5830 ha         1 DL3       0.128500
     67 H26         -5.7320     1.9920    -6.4660 h1         1 DL3       0.051700
     68 H27         -6.2880     1.3810    -9.2360 hc         1 DL3       0.031200
     69 H28         -6.6740     2.8710    -8.3440 hc         1 DL3       0.031200
     70 H29         -4.7650     3.9670    -9.1060 hc         1 DL3       0.020450
     71 H30         -4.8730     2.7830   -10.4360 hc         1 DL3       0.020450
     72 H31         -3.2960     1.3030    -9.3890 hc         1 DL3       0.020450
     73 H32         -2.6180     2.9050    -8.9790 hc         1 DL3       0.020450
     74 H33         -3.1490     1.1730    -6.9940 hc         1 DL3       0.031200
     75 H34         -3.6080     2.8860    -6.7940 hc         1 DL3       0.031200
     76 H35         -4.4630    -1.6560    -7.9720 h1         1 DL3       0.028700
     77 H36         -3.7370    -0.1780    -8.6190 h1         1 DL3       0.028700
     78 H37         -6.6740    -2.4220    -8.8290 ha         1 DL3       0.140500
     79 H38         -8.0780    -2.6140   -10.8460 ha         1 DL3       0.115000
     80 H39         -5.9470     0.6280   -12.6370 ha         1 DL3       0.115000
     81 H40         -4.5440     0.8190   -10.6200 ha         1 DL3       0.140500
     82 NBP         -0.6850    -0.0020     3.4930 nu         1 DL3      -0.479900
@<TRIPOS>BOND
     1     1     2 ar  
     2     1     5 ar  
     3     1     8 1   
     4     2     3 ar  
     5     2    43 1   
     6     3     4 ar  
     7     3    44 1   
     8     4     7 ar  
     9     5     7 ar  
    10     6    45 1   
    11     6    46 1   
    12     6    47 1   
    13     6    82 1   
    14     7    82 1   
    15     8     9 1   
    16     8    49 1   
    17     8    50 1   
    18     9    10 1   
    19     9    17 1   
    20    10    11 1   
    21    10    51 1   
    22    10    52 1   
    23    11    12 1   
    24    11    16 1   
    25    11    53 1   
    26    12    13 1   
    27    12    54 1   
    28    12    55 1   
    29    13    14 1   
    30    13    56 1   
    31    13    57 1   
    32    14    15 1   
    33    14    58 1   
    34    15    16 1   
    35    15    59 1   
    36    15    60 1   
    37    16    61 1   
    38    16    62 1   
    39    17    18 2   
    40    17    19 2   
    41    17    20 1   
    42    20    21 ar  
    43    20    23 ar  
    44    21    22 ar  
    45    21    63 1   
    46    22    25 ar  
    47    22    64 1   
    48    23    24 ar  
    49    23    65 1   
    50    24    25 ar  
    51    24    66 1   
    52    25    26 1   
    53    26    27 2   
    54    26    28 2   
    55    26    29 1   
    56    29    30 1   
    57    29    35 1   
    58    30    31 1   
    59    30    34 1   
    60    30    67 1   
    61    31    32 1   
    62    31    68 1   
    63    31    69 1   
    64    32    33 1   
    65    32    70 1   
    66    32    71 1   
    67    33    34 1   
    68    33    72 1   
    69    33    73 1   
    70    34    74 1   
    71    34    75 1   
    72    35    36 1   
    73    35    76 1   
    74    35    77 1   
    75    36    37 ar  
    76    36    42 ar  
    77    37    38 ar  
    78    37    78 1   
    79    38    39 ar  
    80    38    79 1   
    81    39    40 1   
    82    39    41 ar  
    83    41    42 ar  
    84    41    80 1   
    85    42    81 1   
    86    48    82 1   
@<TRIPOS>SUBSTRUCTURE
     1 DL3         1 TEMP              0 ****  ****    0 ROOT
