@<TRIPOS>MOLECULE
molecule
   71    74     1     0     0
SMALL
bcc


@<TRIPOS>ATOM
      1 O3           0.0000     0.0000     0.0000 o          1 DL4      -0.853800
      2 C27          1.3420     0.0000     0.0000 c          1 DL4       0.895600
      3 O2           1.9460    -0.0000    -1.0470 o          1 DL4      -0.853800
      4 C25          2.0970     0.0000     1.3040 c3         1 DL4      -0.174700
      5 C26          1.7280     1.2490     2.1070 c3         1 DL4      -0.071100
      6 C24          3.6000    -0.0010     1.0230 c3         1 DL4      -0.057400
      7 C23          4.3660    -0.1260     2.3430 c3         1 DL4      -0.091400
      8 C22          5.8690    -0.1270     2.0620 c3         1 DL4      -0.080400
      9 C20          6.6350    -0.2530     3.3820 c3         1 DL4      -0.073700
     10 C21          6.3400    -1.6140     4.0130 c3         1 DL4      -0.095100
     11 C17          8.1360    -0.1290     3.1140 c3         1 DL4      -0.053700
     12 C16          8.4600     1.2600     2.5070 c3         1 DL4      -0.079400
     13 C15          9.4920     1.9240     3.4580 c3         1 DL4      -0.078400
     14 C14         10.1410     0.7230     4.1540 c3         1 DL4      -0.068700
     15 C8          10.7930     1.0090     5.4940 c3         1 DL4      -0.065700
     16 C7          11.9710     1.9680     5.3030 c3         1 DL4      -0.074400
     17 C6          12.5740     2.3030     6.6690 c3         1 DL4      -0.052200
     18 C13          8.9130    -0.1860     4.4260 c3         1 DL4      -0.062000
     19 C18          8.0680     0.4080     5.5550 c3         1 DL4      -0.093100
     20 C12          9.4450    -1.5450     4.8370 c3         1 DL4      -0.065400
     21 C11         10.1850    -1.3570     6.1710 c3         1 DL4      -0.082400
     22 C9          11.3030    -0.3250     6.0570 c3         1 DL4      -0.049700
     23 C10         11.9140    -0.0930     7.4440 c3         1 DL4      -0.027800
     24 C1          12.4450    -1.4100     7.9820 c3         1 DL4      -0.065400
     25 C19         10.8000     0.3850     8.3760 c3         1 DL4      -0.088100
     26 C5          12.9440     1.0080     7.3710 c2         1 DL4      -0.030400
     27 C4          14.1600     0.9210     7.9080 ce         1 DL4      -0.274200
     28 C3          14.5660    -0.3000     8.6130 c          1 DL4       0.570300
     29 O1          15.7340    -0.5830     8.7790 o          1 DL4      -0.532100
     30 C2          13.4190    -1.1970     9.1390 c3         1 DL4      -0.175400
     31 H25          1.8350    -0.8840     1.8730 hc         1 DL4       0.036700
     32 H26          1.6900     1.0030     3.1610 hc         1 DL4       0.019367
     33 H26A         2.4730     2.0170     1.9410 hc         1 DL4       0.019367
     34 H26B         0.7590     1.6120     1.7850 hc         1 DL4       0.019367
     35 H24          3.8770     0.9240     0.5320 hc         1 DL4       0.045700
     36 H24A         3.8470    -0.8380     0.3810 hc         1 DL4       0.045700
     37 H23          4.1180     0.7100     2.9850 hc         1 DL4       0.032200
     38 H23A         4.0900    -1.0520     2.8340 hc         1 DL4       0.032200
     39 H22          6.1160    -0.9630     1.4200 hc         1 DL4       0.040200
     40 H22A         6.1450     0.7990     1.5720 hc         1 DL4       0.040200
     41 H20          6.3220     0.5340     4.0570 hc         1 DL4       0.053700
     42 H21          6.2460    -1.5020     5.0870 hc         1 DL4       0.034033
     43 H21A         7.1510    -2.2980     3.7920 hc         1 DL4       0.034033
     44 H21B         5.4160    -2.0080     3.6090 hc         1 DL4       0.034033
     45 H17          8.4700    -0.9140     2.4480 hc         1 DL4       0.054700
     46 H16          7.5600     1.8620     2.4580 hc         1 DL4       0.049700
     47 H16A         8.8890     1.1420     1.5200 hc         1 DL4       0.049700
     48 H15          8.9920     2.5590     4.1800 hc         1 DL4       0.040700
     49 H15A        10.2290     2.4820     2.8930 hc         1 DL4       0.040700
     50 H14         10.8370     0.2280     3.4880 hc         1 DL4       0.056700
     51 H8          10.0680     1.4440     6.1730 hc         1 DL4       0.068700
     52 H7          12.7230     1.4950     4.6830 hc         1 DL4       0.048700
     53 H7A         11.6230     2.8780     4.8300 hc         1 DL4       0.048700
     54 H6          13.4620     2.9080     6.5340 hc         1 DL4       0.053200
     55 H6A         11.8470     2.8420     7.2640 hc         1 DL4       0.053200
     56 H18          7.3910    -0.3470     5.9350 hc         1 DL4       0.039033
     57 H18A         7.4960     1.2470     5.1760 hc         1 DL4       0.039033
     58 H18B         8.7170     0.7460     6.3530 hc         1 DL4       0.039033
     59 H12         10.1320    -1.9150     4.0850 hc         1 DL4       0.047700
     60 H12A         8.6230    -2.2390     4.9670 hc         1 DL4       0.047700
     61 H11          9.4770    -1.0270     6.9210 hc         1 DL4       0.042200
     62 H11A        10.6110    -2.3060     6.4730 hc         1 DL4       0.042200
     63 H9          12.0700    -0.7120     5.3970 hc         1 DL4       0.054700
     64 H1          11.6110    -2.0090     8.3290 hc         1 DL4       0.052200
     65 H1A         12.9560    -1.9350     7.1840 hc         1 DL4       0.052200
     66 H19         10.1760    -0.4560     8.6540 hc         1 DL4       0.040700
     67 H19A        11.2360     0.8200     9.2670 hc         1 DL4       0.040700
     68 H19B        10.1990     1.1290     7.8680 hc         1 DL4       0.040700
     69 H4          14.8440     1.7590     7.8380 ha         1 DL4       0.148000
     70 H2          13.8180    -2.1500     9.4650 hc         1 DL4       0.065200
     71 H2A         12.9130    -0.7030     9.9600 hc         1 DL4       0.065200
@<TRIPOS>BOND
     1     2     1 1
     2     3     2 1
     3     2     4 1
     4     6     4 1
     5     4     5 1
     6     4    31 1
     7     5    32 1
     8     5    33 1
     9     5    34 1
    10     7     6 1
    11     6    35 1
    12     6    36 1
    13     8     7 1
    14     7    37 1
    15     7    38 1
    16     9     8 1
    17     8    39 1
    18     8    40 1
    19    11     9 1
    20    10     9 1
    21     9    41 1
    22    10    42 1
    23    10    43 1
    24    10    44 1
    25    18    11 1
    26    11    12 1
    27    11    45 1
    28    13    12 1
    29    12    46 1
    30    12    47 1
    31    14    13 1
    32    13    48 1
    33    13    49 1
    34    15    14 1
    35    14    18 1
    36    14    50 1
    37    22    15 1
    38    16    15 1
    39    15    51 1
    40    17    16 1
    41    16    52 1
    42    16    53 1
    43    26    17 1
    44    17    54 1
    45    17    55 1
    46    20    18 1
    47    18    19 1
    48    19    56 1
    49    19    57 1
    50    19    58 1
    51    21    20 1
    52    20    59 1
    53    20    60 1
    54    22    21 1
    55    21    61 1
    56    21    62 1
    57    23    22 1
    58    22    63 1
    59    24    23 1
    60    26    23 1
    61    23    25 1
    62    30    24 1
    63    24    64 1
    64    24    65 1
    65    25    66 1
    66    25    67 1
    67    25    68 1
    68    27    26 2
    69    28    27 1
    70    27    69 1
    71    29    28 2
    72    28    30 1
    73    30    70 1
    74    30    71 1
@<TRIPOS>SUBSTRUCTURE
     1 DL4         1 TEMP              0 ****  ****    0 ROOT
