@<TRIPOS>MOLECULE
DL4
   71    74     1     0     0
SMALL
bcc


@<TRIPOS>ATOM
      1 O3          0.3210   -0.0480   -0.7450 o         1 DL4     -0.847800
      2 C27         1.5440   -0.3110   -0.5600 c         1 DL4      0.913600
      3 O2          2.2670   -0.9140   -1.4040 o         1 DL4     -0.847800
      4 C25         2.1660    0.1050    0.8000 c3        1 DL4     -0.187700
      5 C26         1.7620    1.5200    1.1400 c3        1 DL4     -0.065100
      6 C24         3.6710   -0.0690    0.7960 c3        1 DL4     -0.065400
      7 C23         4.2480   -0.1530    2.1940 c3        1 DL4     -0.078400
      8 C22         5.7540   -0.3170    2.1550 c3        1 DL4     -0.079400
      9 C20         6.3600   -0.4250    3.5530 c3        1 DL4     -0.058700
     10 C21         6.1800   -1.8400    4.0700 c3        1 DL4     -0.089100
     11 C17         7.8300   -0.0190    3.5280 c3        1 DL4     -0.050700
     12 C16         8.0200    1.4300    3.0320 c3        1 DL4     -0.079400
     13 C15         9.2030    2.0320    3.7950 c3        1 DL4     -0.073400
     14 C14         9.8100    0.8530    4.5380 c3        1 DL4     -0.067700
     15 C8         10.6820    1.1120    5.7490 c3        1 DL4     -0.049700
     16 C7         11.8340    2.0380    5.4000 c3        1 DL4     -0.073400
     17 C6         12.7270    2.2520    6.6020 c3        1 DL4     -0.055200
     18 C13         8.5940   -0.0470    4.8760 c3        1 DL4     -0.045000
     19 C18         7.7230    0.5360    5.9760 c3        1 DL4     -0.082100
     20 C12         9.1580   -1.3950    5.2980 c3        1 DL4     -0.066400
     21 C11        10.1100   -1.2450    6.4750 c3        1 DL4     -0.074400
     22 C9         11.2290   -0.2370    6.2370 c3        1 DL4     -0.046700
     23 C10        12.1440   -0.0820    7.4720 c3        1 DL4     -0.017800
     24 C1         12.8060   -1.4420    7.7410 c3        1 DL4     -0.070400
     25 C19        11.3610    0.3460    8.7110 c3        1 DL4     -0.085100
     26 C5         13.1950    0.9670    7.1960 c2        1 DL4     -0.016400
     27 C4         14.4920    0.8040    7.5130 ce        1 DL4     -0.276200
     28 C3         15.0200   -0.3880    8.1840 c         1 DL4      0.572300
     29 O1         16.2320   -0.5680    8.3630 o         1 DL4     -0.547100
     30 C2         13.9890   -1.3630    8.6780 c3        1 DL4     -0.182400
     31 H25         1.7210   -0.5910    1.5650 hc        1 DL4      0.027700
     32 H26         2.2600    2.2460    0.4540 hc        1 DL4      0.015033
     33 H26A        2.0450    1.7790    2.1900 hc        1 DL4      0.015033
     34 H26B        0.6560    1.6260    1.0220 hc        1 DL4      0.015033
     35 H24         3.9190   -1.0040    0.2240 hc        1 DL4      0.047700
     36 H24A        4.1450    0.7850    0.2440 hc        1 DL4      0.047700
     37 H23         3.7840   -1.0170    2.7370 hc        1 DL4      0.026200
     38 H23A        3.9870    0.7750    2.7680 hc        1 DL4      0.026200
     39 H22         6.0180   -1.2330    1.5630 hc        1 DL4      0.039200
     40 H22A        6.1920    0.5610    1.6100 hc        1 DL4      0.039200
     41 H20         5.8040    0.2810    4.2330 hc        1 DL4      0.047700
     42 H21         6.2990   -1.8800    5.1790 hc        1 DL4      0.030700
     43 H21A        5.1580   -2.2150    3.8190 hc        1 DL4      0.030700
     44 H21B        6.9290   -2.5270    3.6070 hc        1 DL4      0.030700
     45 H17         8.3620   -0.7150    2.8220 hc        1 DL4      0.045700
     46 H16         8.2200    1.4350    1.9320 hc        1 DL4      0.049700
     47 H16A        7.0950    2.0300    3.2150 hc        1 DL4      0.049700
     48 H15         9.9430    2.5000    3.1010 hc        1 DL4      0.036700
     49 H15A        8.8590    2.8210    4.5090 hc        1 DL4      0.036700
     50 H14        10.4450    0.2880    3.7910 hc        1 DL4      0.046700
     51 H8         10.0710    1.5940    6.5600 hc        1 DL4      0.055700
     52 H7         11.4290    3.0250    5.0530 hc        1 DL4      0.048200
     53 H7A        12.4300    1.6040    4.5550 hc        1 DL4      0.048200
     54 H6         13.6020    2.8900    6.3080 hc        1 DL4      0.052700
     55 H6A        12.1570    2.8100    7.3960 hc        1 DL4      0.052700
     56 H18         8.2980    0.6890    6.9200 hc        1 DL4      0.034367
     57 H18A        7.3050    1.5210    5.6540 hc        1 DL4      0.034367
     58 H18B        6.8730   -0.1540    6.1990 hc        1 DL4      0.034367
     59 H12         8.3290   -2.0900    5.5900 hc        1 DL4      0.045200
     60 H12A        9.6970   -1.8600    4.4310 hc        1 DL4      0.045200
     61 H11         9.5210   -0.9470    7.3820 hc        1 DL4      0.038700
     62 H11A       10.5640   -2.2500    6.6850 hc        1 DL4      0.038700
     63 H9         11.8760   -0.6450    5.4050 hc        1 DL4      0.050700
     64 H1         12.0450   -2.1380    8.1830 hc        1 DL4      0.051200
     65 H1A        13.1420   -1.8850    6.7660 hc        1 DL4      0.051200
     66 H19        10.7410    1.2480    8.4940 hc        1 DL4      0.039700
     67 H19A       12.0640    0.5900    9.5440 hc        1 DL4      0.039700
     68 H19B       10.6880   -0.4770    9.0510 hc        1 DL4      0.039700
     69 H4         15.2380    1.5840    7.2860 ha        1 DL4      0.145000
     70 H2         13.6580   -1.0240    9.6960 hc        1 DL4      0.068700
     71 H2A        14.4510   -2.3780    8.7930 hc        1 DL4      0.068700
@<TRIPOS>BOND
     1    1    2 1   
     2    2    3 1   
     3    2    4 1   
     4    4    5 1   
     5    4    6 1   
     6    4   31 1   
     7    5   32 1   
     8    5   33 1   
     9    5   34 1   
    10    6    7 1   
    11    6   35 1   
    12    6   36 1   
    13    7    8 1   
    14    7   37 1   
    15    7   38 1   
    16    8    9 1   
    17    8   39 1   
    18    8   40 1   
    19    9   10 1   
    20    9   11 1   
    21    9   41 1   
    22   10   42 1   
    23   10   43 1   
    24   10   44 1   
    25   11   12 1   
    26   11   18 1   
    27   11   45 1   
    28   12   13 1   
    29   12   46 1   
    30   12   47 1   
    31   13   14 1   
    32   13   48 1   
    33   13   49 1   
    34   14   15 1   
    35   14   18 1   
    36   14   50 1   
    37   15   16 1   
    38   15   22 1   
    39   15   51 1   
    40   16   17 1   
    41   16   52 1   
    42   16   53 1   
    43   17   26 1   
    44   17   54 1   
    45   17   55 1   
    46   18   19 1   
    47   18   20 1   
    48   19   56 1   
    49   19   57 1   
    50   19   58 1   
    51   20   21 1   
    52   20   59 1   
    53   20   60 1   
    54   21   22 1   
    55   21   61 1   
    56   21   62 1   
    57   22   23 1   
    58   22   63 1   
    59   23   24 1   
    60   23   25 1   
    61   23   26 1   
    62   24   30 1   
    63   24   64 1   
    64   24   65 1   
    65   25   66 1   
    66   25   67 1   
    67   25   68 1   
    68   26   27 2   
    69   27   28 1   
    70   27   69 1   
    71   28   29 2   
    72   28   30 1   
    73   30   70 1   
    74   30   71 1   
@<TRIPOS>SUBSTRUCTURE
     1 DL4         1 TEMP              0 ****  ****    0 ROOT
