@<TRIPOS>MOLECULE
DL6
   33    33     1     0     0
SMALL
bcc


@<TRIPOS>ATOM
      1 O6         -0.0420   -0.8780    0.2700 oh        1 DL6     -0.587800
      2 C6          1.3550   -1.0370    0.3360 c3        1 DL6      0.134400
      3 C5          1.9060   -0.3840    1.6110 c3        1 DL6      0.110100
      4 C4          3.4420   -0.3190    1.6020 c3        1 DL6      0.084100
      5 O4          3.8000    0.6590    0.6430 oh        1 DL6     -0.583800
      6 C3          3.9600    0.1260    2.9840 c3        1 DL6      0.081100
      7 O3          5.3680    0.0010    3.0570 oh        1 DL6     -0.592800
      8 C2          3.4060   -0.8170    4.0650 c3        1 DL6      0.110100
      9 O2          3.7270   -0.3980    5.3740 oh        1 DL6     -0.618800
     10 C1          1.8600   -0.7690    3.9620 c3        1 DL6      0.334300
     11 N1          1.2130   -1.6940    4.9610 n4        1 DL6     -0.679800
     12 C7         -0.2960   -1.5810    4.9090 c         1 DL6      0.532100
     13 C8         -1.0000   -2.5700    3.9770 c3        1 DL6      0.098800
     14 N2         -0.7130   -3.9390    4.2980 n2        1 DL6     -0.473200
     15 N3         -1.5220   -4.6430    4.9860 n1        1 DL6      0.204000
     16 N4         -2.1030   -5.4420    5.5310 n1        1 DL6      0.097000
     17 O7         -0.7930   -0.7000    5.5880 o         1 DL6     -0.411100
     18 O5          1.4540   -1.2350    2.6820 os        1 DL6     -0.428600
     19 HO6        -0.2240   -0.0060   -0.1040 ho        1 DL6      0.416000
     20 H61         1.5250   -2.1480    0.3620 h1        1 DL6      0.083200
     21 H62         1.8810   -0.5790   -0.5430 h1        1 DL6      0.083200
     22 H5          1.4720    0.6450    1.7500 h1        1 DL6      0.079700
     23 H4          3.8710   -1.3260    1.3440 h1        1 DL6      0.079700
     24 HO4         4.6560    0.4010    0.2770 ho        1 DL6      0.430000
     25 H3          3.6490    1.1880    3.1890 h1        1 DL6      0.078700
     26 HO3         5.7440    0.7280    2.5420 ho        1 DL6      0.436000
     27 H2          3.7940   -1.8600    3.8890 h1        1 DL6      0.086700
     28 HO2         4.6710   -0.1730    5.3830 ho        1 DL6      0.466000
     29 H1          1.4720    0.2750    4.1620 hx        1 DL6      0.118700
     30 HN1         1.4930   -2.6600    4.7520 hn        1 DL6      0.478300
     31 H81        -2.0880   -2.2630    3.9640 h1        1 DL6      0.136200
     32 H82        -0.5740   -2.4100    2.9340 h1        1 DL6      0.136200
     33 H12         1.5730   -1.4240    5.8880 hn        1 DL6      0.478300
@<TRIPOS>BOND
     1    1    2 1
     2    1   19 1
     3    2    3 1
     4    2   20 1
     5    2   21 1
     6    3    4 1
     7    3   18 1
     8    3   22 1
     9    4    5 1
    10    4    6 1
    11    4   23 1
    12    5   24 1
    13    6    7 1
    14    6    8 1
    15    6   25 1
    16    7   26 1
    17    8    9 1
    18    8   10 1
    19    8   27 1
    20    9   28 1
    21   10   11 1
    22   10   18 1
    23   10   29 1
    24   11   12 1
    25   11   30 1
    26   11   33 1
    27   12   13 1
    28   12   17 2
    29   13   14 1
    30   13   31 1
    31   13   32 1
    32   14   15 1
    33   15   16 3
@<TRIPOS>SUBSTRUCTURE
     1 DL6         1 TEMP              0 ****  ****    0 ROOT
