@<TRIPOS>MOLECULE
molecule
   71    74     1     0     0
SMALL
bcc


@<TRIPOS>ATOM
      1 O3           0.0000     0.0000     0.0000 o          1 DL7      -0.854300
      2 C27          1.2090     0.0000     0.0000 c          1 DL7       0.894600
      3 O2           1.8790     0.0050    -1.1630 o          1 DL7      -0.854300
      4 C25          1.9620     0.0000     1.3050 c3         1 DL7      -0.173700
      5 C26          2.8420    -1.2500     1.3860 c3         1 DL7      -0.071100
      6 C24          0.9680     0.0010     2.4670 c3         1 DL7      -0.058400
      7 C23          1.7280     0.1260     3.7890 c3         1 DL7      -0.091400
      8 C22          0.7340     0.1260     4.9520 c3         1 DL7      -0.080400
      9 C20          1.4950     0.2530     6.2730 c3         1 DL7      -0.073700
     10 C21          2.1900     1.6150     6.3340 c3         1 DL7      -0.094100
     11 C17          0.5140     0.1280     7.4410 c3         1 DL7      -0.053700
     12 C16         -0.1760    -1.2610     7.4200 c3         1 DL7      -0.079400
     13 C15          0.1240    -1.9190     8.7960 c3         1 DL7      -0.078400
     14 C14          0.3880    -0.7110     9.6980 c3         1 DL7      -0.039500
     15 C8           1.2370    -0.9580    10.9140 c2         1 DL7      -0.086400
     16 C7           1.5180    -2.1670    11.2850 c2         1 DL7      -0.192200
     17 C6           2.3750    -2.4760    12.4780 c3         1 DL7      -0.037200
     18 C13          1.2590     0.1780     8.7650 c3         1 DL7      -0.059000
     19 C18          2.6330    -0.4730     8.5940 c3         1 DL7      -0.093100
     20 C12          1.4400     1.5160     9.4410 c3         1 DL7      -0.065400
     21 C11          2.3230     1.2930    10.6810 c3         1 DL7      -0.077400
     22 C9           1.7060     0.2760    11.6380 c3         1 DL7      -0.016500
     23 C10          2.6610    -0.0200    12.7820 c3         1 DL7      -0.055000
     24 C1           2.6110     1.1480    13.7730 c3         1 DL7      -0.066400
     25 C19          4.0820    -0.1540    12.2310 c3         1 DL7      -0.091100
     26 C5           2.2890    -1.3240    13.4870 c3         1 DL7      -0.049700
     27 C4           3.2950    -1.6140    14.6100 c3         1 DL7      -0.182400
     28 C3           3.3890    -0.4100    15.5170 c          1 DL7       0.571100
     29 O1           3.2610    -0.5170    16.7120 o          1 DL7      -0.531100
     30 C2           3.6500     0.9380    14.8770 c3         1 DL7      -0.183400
     31 H25          2.5850     0.8840     1.3620 hc         1 DL7       0.036700
     32 H26          2.2440    -2.0910     1.7170 hc         1 DL7       0.019367
     33 H26A         3.6470    -1.0800     2.0900 hc         1 DL7       0.019367
     34 H26B         3.2560    -1.4640     0.4080 hc         1 DL7       0.019367
     35 H24          0.4050    -0.9250     2.4610 hc         1 DL7       0.045700
     36 H24A         0.2890     0.8380     2.3610 hc         1 DL7       0.045700
     37 H23          2.2910     1.0520     3.7950 hc         1 DL7       0.032200
     38 H23A         2.4080    -0.7100     3.8960 hc         1 DL7       0.032200
     39 H22          0.0540     0.9630     4.8450 hc         1 DL7       0.040200
     40 H22A         0.1720    -0.8000     4.9460 hc         1 DL7       0.040200
     41 H20          2.2370    -0.5340     6.3390 hc         1 DL7       0.055700
     42 H21          3.1310     1.5170     6.8620 hc         1 DL7       0.033367
     43 H21A         1.5560     2.3210     6.8550 hc         1 DL7       0.033367
     44 H21B         2.3760     1.9700     5.3280 hc         1 DL7       0.033367
     45 H17         -0.2290     0.9140     7.4000 hc         1 DL7       0.053700
     46 H16          0.2350    -1.8670     6.6220 hc         1 DL7       0.050200
     47 H16A        -1.2450    -1.1420     7.2920 hc         1 DL7       0.050200
     48 H15         -0.7340    -2.4790     9.1480 hc         1 DL7       0.044200
     49 H15A         1.0040    -2.5490     8.7350 hc         1 DL7       0.044200
     50 H14         -0.5360    -0.2080     9.9590 hc         1 DL7       0.063700
     51 H7           1.1160    -2.9920    10.7090 ha         1 DL7       0.130000
     52 H6           3.4030    -2.5990    12.1590 hc         1 DL7       0.048200
     53 H6A          2.0250    -3.3890    12.9440 hc         1 DL7       0.048200
     54 H18          2.9240    -0.9530     9.5210 hc         1 DL7       0.039700
     55 H18A         3.3630     0.2850     8.3370 hc         1 DL7       0.039700
     56 H18B         2.5870    -1.2130     7.8040 hc         1 DL7       0.039700
     57 H12          1.9270     2.2070     8.7630 hc         1 DL7       0.046700
     58 H12A         0.4760     1.9070     9.7440 hc         1 DL7       0.046700
     59 H11          2.4460     2.2360    11.2000 hc         1 DL7       0.044200
     60 H11A         3.2930     0.9310    10.3610 hc         1 DL7       0.044200
     61 H9           0.8280     0.7410    12.0700 hc         1 DL7       0.050700
     62 H1           1.6240     1.2010    14.2160 hc         1 DL7       0.050200
     63 H1A          2.8270     2.0710    13.2500 hc         1 DL7       0.050200
     64 H19          4.0680    -0.7760    11.3440 hc         1 DL7       0.039033
     65 H19A         4.7190    -0.6080    12.9810 hc         1 DL7       0.039033
     66 H19B         4.4650     0.8270    11.9780 hc         1 DL7       0.039033
     67 H5           1.2870    -1.2570    13.8920 hc         1 DL7       0.063700
     68 H4           4.2680    -1.8190    14.1800 hc         1 DL7       0.068700
     69 H4A          2.9590    -2.4700    15.1830 hc         1 DL7       0.068700
     70 H2           3.5550     1.7190    15.6210 hc         1 DL7       0.066700
     71 H2A          4.6450     0.9520    14.4490 hc         1 DL7       0.066700
@<TRIPOS>BOND
     1     1     2 1
     2     2     4 1
     3     2     3 1
     4     6     4 1
     5     4     5 1
     6     4    31 1
     7     5    32 1
     8     5    33 1
     9     5    34 1
    10     7     6 1
    11     6    35 1
    12     6    36 1
    13     8     7 1
    14     7    37 1
    15     7    38 1
    16     9     8 1
    17     8    39 1
    18     8    40 1
    19    11     9 1
    20    10     9 1
    21     9    41 1
    22    10    42 1
    23    10    43 1
    24    10    44 1
    25    18    11 1
    26    11    12 1
    27    11    45 1
    28    13    12 1
    29    12    46 1
    30    12    47 1
    31    14    13 1
    32    13    48 1
    33    13    49 1
    34    15    14 1
    35    14    18 1
    36    14    50 1
    37    22    15 1
    38    15    16 2
    39    17    16 1
    40    16    51 1
    41    26    17 1
    42    17    52 1
    43    17    53 1
    44    20    18 1
    45    18    19 1
    46    19    54 1
    47    19    55 1
    48    19    56 1
    49    21    20 1
    50    20    57 1
    51    20    58 1
    52    22    21 1
    53    21    59 1
    54    21    60 1
    55    23    22 1
    56    22    61 1
    57    24    23 1
    58    26    23 1
    59    23    25 1
    60    30    24 1
    61    24    62 1
    62    24    63 1
    63    25    64 1
    64    25    65 1
    65    25    66 1
    66    27    26 1
    67    26    67 1
    68    28    27 1
    69    27    68 1
    70    27    69 1
    71    29    28 2
    72    28    30 1
    73    30    70 1
    74    30    71 1
@<TRIPOS>SUBSTRUCTURE
     1 DL7         1 TEMP              0 ****  ****    0 ROOT
