@<TRIPOS>MOLECULE
DL7
   71    74     1     0     0
SMALL
bcc


@<TRIPOS>ATOM
      1 O3         -0.4970    0.8990    0.0730 o         1 DL7     -0.847800
      2 C27         0.6130    0.3310   -0.1350 c         1 DL7      0.913600
      3 O2          1.0730    0.0910   -1.2890 o         1 DL7     -0.847800
      4 C25         1.4920   -0.0670    1.0800 c3        1 DL7     -0.187700
      5 C26         2.0390   -1.4610    0.8880 c3        1 DL7     -0.065100
      6 C24         0.7280    0.0670    2.3830 c3        1 DL7     -0.065400
      7 C23         1.6460    0.1770    3.5830 c3        1 DL7     -0.078400
      8 C22         0.8520    0.2990    4.8680 c3        1 DL7     -0.079400
      9 C20         1.7530    0.4440    6.0930 c3        1 DL7     -0.058700
     10 C21         2.2220    1.8830    6.2040 c3        1 DL7     -0.089100
     11 C17         1.0180   -0.0080    7.3500 c3        1 DL7     -0.050700
     12 C16         0.5680   -1.4820    7.2580 c3        1 DL7     -0.079400
     13 C15         0.7140   -2.1040    8.6480 c3        1 DL7     -0.072400
     14 C14         0.9860   -0.9210    9.5660 c3        1 DL7     -0.038500
     15 C8          1.6090   -1.1250   10.8970 c2        1 DL7     -0.081400
     16 C7          1.8120   -2.3350   11.4380 c2        1 DL7     -0.189200
     17 C6          2.3070   -2.5370   12.8180 c3        1 DL7     -0.036200
     18 C13         1.8040    0.0560    8.6800 c3        1 DL7     -0.040000
     19 C18         3.2280   -0.4380    8.4870 c3        1 DL7     -0.081100
     20 C12         1.7850    1.3950    9.3990 c3        1 DL7     -0.067400
     21 C11         2.4200    1.2720   10.7730 c3        1 DL7     -0.071400
     22 C9          1.8400    0.1600   11.6450 c3        1 DL7     -0.015500
     23 C10         2.6800   -0.0500   12.9290 c3        1 DL7     -0.040000
     24 C1          2.5030    1.1740   13.8330 c3        1 DL7     -0.068400
     25 C19         4.1520   -0.2410   12.5950 c3        1 DL7     -0.086100
     26 C5          2.1190   -1.2820   13.6610 c3        1 DL7     -0.051700
     27 C4          2.7190   -1.4940   15.0400 c3        1 DL7     -0.179400
     28 C3          2.6920   -0.2480   15.8750 c         1 DL7      0.573100
     29 O1          2.3460   -0.2580   17.0610 o         1 DL7     -0.542100
     30 C2          3.1550    1.0040   15.1870 c3        1 DL7     -0.181400
     31 H25         2.3510    0.6600    1.0860 hc        1 DL7      0.027700
     32 H26         1.2210   -2.2170    0.9640 hc        1 DL7      0.015367
     33 H26A        2.4960   -1.5410   -0.1290 hc        1 DL7      0.015367
     34 H26B        2.8120   -1.7020    1.6570 hc        1 DL7      0.015367
     35 H24         0.0730    0.9780    2.3180 hc        1 DL7      0.047700
     36 H24A        0.0470   -0.8150    2.5090 hc        1 DL7      0.047700
     37 H23         2.3090   -0.7270    3.6380 hc        1 DL7      0.026700
     38 H23A        2.3150    1.0690    3.4610 hc        1 DL7      0.026700
     39 H22         0.1680    1.1860    4.8030 hc        1 DL7      0.039200
     40 H22A        0.2010   -0.6080    4.9710 hc        1 DL7      0.039200
     41 H20         2.6550   -0.2150    5.9490 hc        1 DL7      0.048700
     42 H21         1.4070    2.5330    6.6050 hc        1 DL7      0.031033
     43 H21A        2.5170    2.2700    5.1990 hc        1 DL7      0.031033
     44 H21B        3.1070    1.9630    6.8790 hc        1 DL7      0.031033
     45 H17         0.1050    0.6410    7.4620 hc        1 DL7      0.045700
     46 H16        -0.4930   -1.5360    6.9120 hc        1 DL7      0.049700
     47 H16A        1.1970   -2.0370    6.5180 hc        1 DL7      0.049700
     48 H15        -0.2110   -2.6520    8.9520 hc        1 DL7      0.039200
     49 H15A        1.5650   -2.8300    8.6660 hc        1 DL7      0.039200
     50 H14        -0.0140   -0.4300    9.7700 hc        1 DL7      0.053700
     51 H7          1.6030   -3.2540   10.8670 ha        1 DL7      0.128000
     52 H6          3.3950   -2.8200   12.7890 hc        1 DL7      0.046200
     53 H6A         1.7550   -3.3890   13.2970 hc        1 DL7      0.046200
     54 H18         3.2360   -1.3470    7.8370 hc        1 DL7      0.035700
     55 H18A        3.8520    0.3510    8.0040 hc        1 DL7      0.035700
     56 H18B        3.6880   -0.7080    9.4680 hc        1 DL7      0.035700
     57 H12         0.7270    1.7540    9.4950 hc        1 DL7      0.045200
     58 H12A        2.3460    2.1650    8.8080 hc        1 DL7      0.045200
     59 H11         2.2910    2.2470   11.3150 hc        1 DL7      0.039700
     60 H11A        3.5210    1.1120   10.6330 hc        1 DL7      0.039700
     61 H9          0.8120    0.5020   11.9760 hc        1 DL7      0.050700
     62 H1          2.9470    2.0740   13.3310 hc        1 DL7      0.049200
     63 H1A         1.4070    1.3730   13.9730 hc        1 DL7      0.049200
     64 H19         4.6360    0.7410   12.3700 hc        1 DL7      0.037700
     65 H19A        4.2610   -0.9080   11.7050 hc        1 DL7      0.037700
     66 H19B        4.6970   -0.7020   13.4530 hc        1 DL7      0.037700
     67 H5          1.0110   -1.1120   13.7920 hc        1 DL7      0.056700
     68 H4          3.7880   -1.8270   14.9560 hc        1 DL7      0.068200
     69 H4A         2.1560   -2.3130   15.5640 hc        1 DL7      0.068200
     70 H2          2.9330    1.8960   15.8290 hc        1 DL7      0.067200
     71 H2A         4.2700    0.9370   15.0690 hc        1 DL7      0.067200
@<TRIPOS>BOND
     1    1    2 1   
     2    2    3 1   
     3    2    4 1   
     4    4    5 1   
     5    4    6 1   
     6    4   31 1   
     7    5   32 1   
     8    5   33 1   
     9    5   34 1   
    10    6    7 1   
    11    6   35 1   
    12    6   36 1   
    13    7    8 1   
    14    7   37 1   
    15    7   38 1   
    16    8    9 1   
    17    8   39 1   
    18    8   40 1   
    19    9   10 1   
    20    9   11 1   
    21    9   41 1   
    22   10   42 1   
    23   10   43 1   
    24   10   44 1   
    25   11   12 1   
    26   11   18 1   
    27   11   45 1   
    28   12   13 1   
    29   12   46 1   
    30   12   47 1   
    31   13   14 1   
    32   13   48 1   
    33   13   49 1   
    34   14   15 1   
    35   14   18 1   
    36   14   50 1   
    37   15   16 2   
    38   15   22 1   
    39   16   17 1   
    40   16   51 1   
    41   17   26 1   
    42   17   52 1   
    43   17   53 1   
    44   18   19 1   
    45   18   20 1   
    46   19   54 1   
    47   19   55 1   
    48   19   56 1   
    49   20   21 1   
    50   20   57 1   
    51   20   58 1   
    52   21   22 1   
    53   21   59 1   
    54   21   60 1   
    55   22   23 1   
    56   22   61 1   
    57   23   24 1   
    58   23   25 1   
    59   23   26 1   
    60   24   30 1   
    61   24   62 1   
    62   24   63 1   
    63   25   64 1   
    64   25   65 1   
    65   25   66 1   
    66   26   27 1   
    67   26   67 1   
    68   27   28 1   
    69   27   68 1   
    70   27   69 1   
    71   28   29 2   
    72   28   30 1   
    73   30   70 1   
    74   30   71 1   
@<TRIPOS>SUBSTRUCTURE
     1 DL7         1 TEMP              0 ****  ****    0 ROOT
