@<TRIPOS>MOLECULE
molecule
   46    48     1     0     0
SMALL
bcc


@<TRIPOS>ATOM
      1 C12          0.0000     0.0000     0.0000 ca         1 DL8      -0.109500
      2 C13          1.3810     0.0000     0.0000 ca         1 DL8      -0.130000
      3 C14          2.0750     0.0000     1.1970 ca         1 DL8      -0.126000
      4 C15          1.3900     0.0000     2.3990 ca         1 DL8      -0.130000
      5 C16          0.0100     0.0000     2.4100 ca         1 DL8      -0.109500
      6 C11         -0.6940    -0.0000     1.2080 ca         1 DL8      -0.103500
      7 C10         -2.1780     0.0010     1.2130 cc         1 DL8       0.339800
      8 C9          -2.9940     0.0010     2.3080 cd         1 DL8      -0.283600
      9 N4          -2.9910     0.0070     0.1410 nc         1 DL8      -0.355000
     10 N3          -4.2110     0.0060     0.5460 nd         1 DL8      -0.166800
     11 N2          -4.2590     0.0020     1.8320 na         1 DL8       0.134400
     12 C8          -5.4790     0.0020     2.6430 c3         1 DL8      -0.011700
     13 C7          -6.3480     1.1660     2.2430 c          1 DL8       0.650100
     14 O7          -5.9830     1.9230     1.3670 o          1 DL8      -0.545100
     15 N1          -7.5300     1.3690     2.8590 ns         1 DL8      -0.566900
     16 C1          -8.3750     2.5010     2.4700 c3         1 DL8       0.317500
     17 O5          -8.1200     3.6050     3.3410 os         1 DL8      -0.420600
     18 C5          -8.8780     4.7770     3.0320 c3         1 DL8       0.155100
     19 C6          -8.5050     5.8960     4.0070 c3         1 DL8       0.152400
     20 O6          -7.1390     6.2660     3.8080 oh         1 DL8      -0.594800
     21 C4         -10.3720     4.4660     3.1600 c3         1 DL8       0.102100
     22 O4         -11.1320     5.6200     2.7960 oh         1 DL8      -0.597800
     23 C3         -10.7240     3.3050     2.2250 c3         1 DL8       0.113100
     24 O3         -12.1010     2.9590     2.3920 oh         1 DL8      -0.607800
     25 C2          -9.8480     2.0980     2.5750 c3         1 DL8       0.095100
     26 O2         -10.1170     1.0320     1.6630 oh         1 DL8      -0.589800
     27 H12         -0.5430    -0.0000    -0.9380 ha         1 DL8       0.138000
     28 H13          1.9220    -0.0000    -0.9390 ha         1 DL8       0.130000
     29 H14          3.1580     0.0000     1.1930 ha         1 DL8       0.128000
     30 H15          1.9380     0.0000     3.3330 ha         1 DL8       0.130000
     31 H16         -0.5250     0.0000     3.3520 ha         1 DL8       0.138000
     32 H9          -2.6890    -0.0020     3.3480 h4         1 DL8       0.180000
     33 H81         -5.2160     0.0910     3.6900 h1         1 DL8       0.084700
     34 H82         -6.0190    -0.9230     2.4830 h1         1 DL8       0.084700
     35 HN1         -7.8160     0.7650     3.6040 hn         1 DL8       0.312500
     36 H1          -8.1530     2.7890     1.4500 h2         1 DL8       0.100700
     37 H5          -8.6620     5.0890     2.0180 h1         1 DL8       0.073700
     38 H61         -9.1410     6.7560     3.8300 h1         1 DL8       0.034700
     39 H62         -8.6410     5.5490     5.0240 h1         1 DL8       0.034700
     40 HO6         -6.9230     6.9870     4.3750 ho         1 DL8       0.403000
     41 H4         -10.5950     4.1870     4.1820 h1         1 DL8       0.053700
     42 HO4        -11.8580     5.7190     3.3900 ho         1 DL8       0.414000
     43 H3         -10.5410     3.6000     1.1990 h1         1 DL8       0.068700
     44 HO3        -12.5500     3.0490     1.5670 ho         1 DL8       0.418000
     45 H2         -10.0630     1.7780     3.5870 h1         1 DL8       0.050700
     46 HO2        -10.5990     0.3540     2.1070 ho         1 DL8       0.411000
@<TRIPOS>BOND
     1     1     6 ar
     2     1     2 ar
     3     1    27 1
     4     2     3 ar
     5     2    28 1
     6     3     4 ar
     7     3    29 1
     8     4     5 ar
     9     4    30 1
    10     5     6 ar
    11     5    31 1
    12     6     7 1
    13     7     8 2
    14     7     9 1
    15     8    11 1
    16     8    32 1
    17     9    10 2
    18    10    11 1
    19    11    12 1
    20    12    13 1
    21    12    33 1
    22    12    34 1
    23    13    15 1
    24    13    14 2
    25    15    16 1
    26    15    35 1
    27    16    25 1
    28    16    17 1
    29    16    36 1
    30    17    18 1
    31    18    21 1
    32    18    19 1
    33    18    37 1
    34    19    20 1
    35    19    38 1
    36    19    39 1
    37    20    40 1
    38    21    22 1
    39    21    23 1
    40    21    41 1
    41    22    42 1
    42    23    24 1
    43    23    25 1
    44    23    43 1
    45    24    44 1
    46    25    26 1
    47    25    45 1
    48    26    46 1
@<TRIPOS>SUBSTRUCTURE
     1 DL8         1 TEMP              0 ****  ****    0 ROOT
