@<TRIPOS>MOLECULE
molecule
   11    10     1     0     0
SMALL
bcc


@<TRIPOS>ATOM
      1 O1           0.0000     0.0000     0.0000 o          1 DLA      -0.842800
      2 O2           1.8790    -0.0010    -1.1620 o          1 DLA      -0.842800
      3 O3           1.0320     0.0020     2.3910 oh         1 DLA      -0.601800
      4 C1           1.2080     0.0000     0.0000 c          1 DLA       0.882600
      5 C2           1.9600     0.0000     1.3060 c3         1 DLA       0.035100
      6 C3           2.8410     1.2480     1.3860 c3         1 DLA      -0.079100
      7 H2           2.5820    -0.8850     1.3640 h1         1 DLA       0.010700
      8 H31          3.6220     1.1880     0.6380 hc         1 DLA       0.023700
      9 H32          3.2880     1.3120     2.3710 hc         1 DLA       0.023700
     10 H33          2.2360     2.1290     1.2070 hc         1 DLA       0.023700
     11 HO3          1.1300    -0.7930     2.8890 ho         1 DLA       0.366000
@<TRIPOS>BOND
     1     1     4 1
     2     2     4 1
     3     3     5 1
     4     3    11 1
     5     4     5 1
     6     5     6 1
     7     5     7 1
     8     6     8 1
     9     6     9 1
    10     6    10 1
@<TRIPOS>SUBSTRUCTURE
     1 DLA         1 TEMP              0 ****  ****    0 ROOT
