@<TRIPOS>MOLECULE
DLA
   11    10     1     0     0
SMALL
bcc


@<TRIPOS>ATOM
      1 O1          0.0600   -0.2560    0.1630 o         1 DLA     -0.840300
      2 O2          1.9490   -0.2500   -1.0400 o         1 DLA     -0.840300
      3 O3          1.3110   -0.2250    2.5110 oh        1 DLA     -0.651800
      4 C1          1.3200   -0.1970    0.0500 c         1 DLA      0.892600
      5 C2          2.1300   -0.0530    1.3640 c3        1 DLA      0.013100
      6 C3          2.8040    1.3030    1.4240 c3        1 DLA     -0.089100
      7 H2          2.9030   -0.8680    1.4110 h1        1 DLA      0.031700
      8 H31         3.4680    1.3770    2.3170 hc        1 DLA      0.020033
      9 H32         2.0360    2.1110    1.4900 hc        1 DLA      0.020033
     10 H33         3.4080    1.4500    0.4970 hc        1 DLA      0.020033
     11 HO3         0.3900   -0.1900    2.2050 ho        1 DLA      0.422000
@<TRIPOS>BOND
     1    1    4 1   
     2    2    4 1   
     3    3    5 1   
     4    3   11 1   
     5    4    5 1   
     6    5    6 1   
     7    5    7 1   
     8    6    8 1   
     9    6    9 1   
    10    6   10 1   
@<TRIPOS>SUBSTRUCTURE
     1 DLA         1 TEMP              0 ****  ****    0 ROOT
