@<TRIPOS>MOLECULE
DLA
   11    10     1     0     0
SMALL
bcc


@<TRIPOS>ATOM
      1 O1          0.0220   -0.2010    0.2040 o         1 DLA     -0.840300
      2 O2          1.8810   -0.2240   -1.0460 o         1 DLA     -0.840300
      3 O3          1.3320   -0.2260    2.5210 oh        1 DLA     -0.651800
      4 C1          1.2800   -0.1690    0.0610 c         1 DLA      0.892600
      5 C2          2.1250   -0.0590    1.3550 c3        1 DLA      0.013100
      6 C3          2.8320    1.2810    1.4130 c3        1 DLA     -0.089100
      7 H2          2.8810   -0.8920    1.3750 h1        1 DLA      0.031700
      8 H31         3.4160    1.4250    0.4730 hc        1 DLA      0.020033
      9 H32         3.5200    1.3290    2.2900 hc        1 DLA      0.020033
     10 H33         2.0850    2.1050    1.5070 hc        1 DLA      0.020033
     11 HO3         0.4050   -0.1650    2.2380 ho        1 DLA      0.422000
@<TRIPOS>BOND
     1    1    4 1   
     2    2    4 1   
     3    3    5 1   
     4    3   11 1   
     5    4    5 1   
     6    5    6 1   
     7    5    7 1   
     8    6    8 1   
     9    6    9 1   
    10    6   10 1   
@<TRIPOS>SUBSTRUCTURE
     1 DLA         1 TEMP              0 ****  ****    0 ROOT
