@<TRIPOS>MOLECULE
molecule
   59    62     1     0     0
SMALL
bcc


@<TRIPOS>ATOM
      1 C10          0.0000     0.0000     0.0000 ca         1 DLB      -0.077300
      2 C11          1.3820     0.0000     0.0000 ca         1 DLB      -0.110000
      3 C13          1.3810     0.0000     2.3950 ca         1 DLB       0.028400
      4 C15         -0.6920     0.0000     1.1960 ca         1 DLB      -0.110000
      5 C17         -1.6320     1.2550    -1.3820 c3         1 DLB      -0.056700
      6 C18         -0.7460     2.5020    -1.4120 c3         1 DLB      -0.093600
      7 C19         -2.4830     1.2030    -2.6530 c3         1 DLB      -0.093600
      8 C21          0.4590    -5.2900    -5.6890 ca         1 DLB       0.010100
      9 C22          0.8380    -5.7110    -4.4160 ca         1 DLB       0.036100
     10 C24          1.9010    -6.5870    -4.2670 ca         1 DLB      -0.115000
     11 C25          2.5840    -7.0410    -5.3800 ca         1 DLB      -0.045300
     12 C26          2.2080    -6.6250    -6.6440 ca         1 DLB      -0.131000
     13 C27          1.1500    -5.7470    -6.8000 ca         1 DLB      -0.115000
     14 C28          3.7420    -7.9910    -5.2150 c3         1 DLB      -0.026100
     15 C1          -2.0390    -3.4900    -2.2170 c3         1 DLB       0.106000
     16 C2          -2.0490    -3.8520    -3.7070 c3         1 DLB      -0.111400
     17 C3          -0.6150    -4.0380    -4.1930 c3         1 DLB       0.341600
     18 C4           0.1900    -2.7570    -4.0030 c3         1 DLB      -0.111400
     19 C5           0.2190    -2.3870    -2.5160 c3         1 DLB       0.106000
     20 N6          -1.1640    -2.3270    -2.0190 n          1 DLB      -0.485800
     21 C7          -1.6190    -1.2250    -1.3920 c          1 DLB       0.674100
     22 O8          -2.7260    -1.2230    -0.8970 o          1 DLB      -0.621100
     23 C9          -0.7520     0.0060    -1.3060 c3         1 DLB      -0.093400
     24 C12          2.0730     0.0000     1.1970 ca         1 DLB      -0.121500
     25 C14         -0.0030     0.0020     2.3940 ca         1 DLB      -0.121500
     26 Cl           2.2480     0.0000     3.8990 cl         1 DLB      -0.115400
     27 O20         -0.6010    -4.4380    -5.5710 os         1 DLB      -0.323900
     28 O23          0.0150    -5.1220    -3.4990 os         1 DLB      -0.321900
     29 C29          3.2290    -9.4320    -5.2580 c3         1 DLB      -0.178400
     30 C30          4.3860   -10.3830    -5.0930 c          1 DLB       0.890600
     31 O31          4.1730   -11.7080    -5.0990 o          1 DLB      -0.851800
     32 O32          5.5070    -9.9520    -4.9560 o          1 DLB      -0.851800
     33 H1           1.9240    -0.0000    -0.9380 ha         1 DLB       0.146500
     34 H2          -1.7750     0.0010     1.1950 ha         1 DLB       0.146500
     35 H3          -2.3110     1.3150    -0.5400 hc         1 DLB       0.069700
     36 H4          -0.4160     2.7350    -0.4070 hc         1 DLB       0.037367
     37 H5          -1.3100     3.3370    -1.8100 hc         1 DLB       0.037367
     38 H6           0.1170     2.3170    -2.0410 hc         1 DLB       0.037367
     39 H7          -3.3300     0.5460    -2.4930 hc         1 DLB       0.037367
     40 H8          -1.8840     0.8260    -3.4730 hc         1 DLB       0.037367
     41 H9          -2.8380     2.1980    -2.8920 hc         1 DLB       0.037367
     42 H10          2.2000    -6.9120    -3.2780 ha         1 DLB       0.148000
     43 H11          2.7500    -6.9770    -7.5130 ha         1 DLB       0.145000
     44 H12          0.8580    -5.4230    -7.7910 ha         1 DLB       0.129000
     45 H13          4.2260    -7.8090    -4.2630 hc         1 DLB       0.058200
     46 H14          4.4530    -7.8370    -6.0170 hc         1 DLB       0.058200
     47 H15         -1.6630    -4.3290    -1.6440 h1         1 DLB       0.066950
     48 H16         -3.0450    -3.2460    -1.8970 h1         1 DLB       0.066950
     49 H17         -2.6010    -4.7730    -3.8510 hc         1 DLB       0.068450
     50 H18         -2.5190    -3.0520    -4.2680 hc         1 DLB       0.068450
     51 H19          1.2030    -2.9130    -4.3540 hc         1 DLB       0.068450
     52 H20         -0.2730    -1.9540    -4.5650 hc         1 DLB       0.068450
     53 H21          0.7700    -3.1400    -1.9660 h1         1 DLB       0.066950
     54 H22          0.6910    -1.4200    -2.3920 h1         1 DLB       0.066950
     55 H23         -0.0480     0.0090    -2.1290 hc         1 DLB       0.069700
     56 H24          3.1560    -0.0010     1.1970 ha         1 DLB       0.144000
     57 H25         -0.5450     0.0020     3.3320 ha         1 DLB       0.144000
     58 H26          2.7450    -9.6150    -6.2100 hc         1 DLB       0.034200
     59 H27          2.5170    -9.5870    -4.4560 hc         1 DLB       0.034200
@<TRIPOS>BOND
     1    14    11 1
     2    14    29 1
     3     6     5 1
     4    10    11 ar
     5    10     9 ar
     6    16    15 1
     7    16    17 1
     8    28     9 1
     9    28    17 1
    10    11    12 ar
    11     9     8 ar
    12    15    20 1
    13    32    30 1
    14    23     5 1
    15    23    21 1
    16    23     1 1
    17    29    30 1
    18     7     5 1
    19    17    27 1
    20    17    18 1
    21    20    21 1
    22    20    19 1
    23    30    31 1
    24     4     1 ar
    25     4    25 ar
    26    21    22 2
    27    19    18 1
    28    12    13 ar
    29     8    27 1
    30     8    13 ar
    31     1     2 ar
    32    25     3 ar
    33     2    24 ar
    34     3    24 ar
    35     3    26 1
    36     2    33 1
    37     4    34 1
    38     5    35 1
    39     6    36 1
    40     6    37 1
    41     6    38 1
    42     7    39 1
    43     7    40 1
    44     7    41 1
    45    10    42 1
    46    12    43 1
    47    13    44 1
    48    14    45 1
    49    14    46 1
    50    15    47 1
    51    15    48 1
    52    16    49 1
    53    16    50 1
    54    18    51 1
    55    18    52 1
    56    19    53 1
    57    19    54 1
    58    23    55 1
    59    24    56 1
    60    25    57 1
    61    29    58 1
    62    29    59 1
@<TRIPOS>SUBSTRUCTURE
     1 DLB         1 TEMP              0 ****  ****    0 ROOT
