@<TRIPOS>MOLECULE
molecule
   42    45     1     0     0
SMALL
bcc


@<TRIPOS>ATOM
      1 C10          0.0000     0.0000     0.0000 c3         1 DLH       0.108500
      2 C11          0.0100    -1.2460     2.2020 c3         1 DLH       0.108500
      3 C15         -4.5240    -5.0760    -2.0010 ca         1 DLH       0.032400
      4 C17         -4.1330    -2.8600    -1.1830 ca         1 DLH      -0.102500
      5 C18         -2.2980    -4.1920    -1.9520 ca         1 DLH      -0.102500
      6 C19         -5.0050    -3.8910    -1.4730 ca         1 DLH      -0.119000
      7 C20         -3.1690    -5.2270    -2.2380 ca         1 DLH      -0.119000
      8 C21          4.9620     0.9440     3.2800 ca         1 DLH      -0.113500
      9 C22          2.6980     2.3300     4.0760 ca         1 DLH      -0.113500
     10 C23          3.8790     2.4660     4.7810 ca         1 DLH      -0.126000
     11 C24          5.0090     1.7750     4.3840 ca         1 DLH      -0.126000
     12 C1           2.0400     0.0000     1.4370 c3         1 DLH       0.338600
     13 C12         -1.8300    -1.8840    -1.1040 c3         1 DLH      -0.110100
     14 C14         -2.7800    -3.0110    -1.4200 ca         1 DLH      -0.066300
     15 C6           2.6430     1.5000     2.9690 ca         1 DLH       0.046100
     16 C7           3.7820     0.8040     2.5690 ca         1 DLH       0.046100
     17 C8           1.5330     0.0000     0.0000 c3         1 DLH      -0.109900
     18 C9           1.5430    -1.2400     2.1870 c3         1 DLH      -0.109900
     19 N2          -0.4750    -1.1220     0.8200 n          1 DLH      -0.498800
     20 O13         -1.7260    -2.9460     1.0020 o          1 DLH      -0.593100
     21 O4           3.4740     0.0600     1.4640 os         1 DLH      -0.316900
     22 O5           1.6210     1.1920     2.1170 os         1 DLH      -0.316900
     23 H1          -0.3620    -0.1150    -1.0150 h1         1 DLH       0.066450
     24 H2          -0.3620     0.9320     0.4170 h1         1 DLH       0.066450
     25 H3          -0.3500    -0.4090     2.7890 h1         1 DLH       0.066450
     26 H4          -0.3440    -2.1760     2.6290 h1         1 DLH       0.066450
     27 H5          -4.5100    -1.9330    -0.7680 ha         1 DLH       0.135500
     28 H6          -1.2370    -4.3100    -2.1370 ha         1 DLH       0.135500
     29 H7          -6.0660    -3.7720    -1.2870 ha         1 DLH       0.144000
     30 H8          -2.7910    -6.1540    -2.6530 ha         1 DLH       0.144000
     31 H9           5.8490     0.4040     2.9700 ha         1 DLH       0.143500
     32 H10          1.8150     2.8730     4.3900 ha         1 DLH       0.143500
     33 H11          3.9200     3.1160     5.6470 ha         1 DLH       0.139500
     34 H12          5.9330     1.8850     4.9390 ha         1 DLH       0.139500
     35 H13         -0.9860    -1.9220    -1.7820 hc         1 DLH       0.067200
     36 H14         -2.3420    -0.9370    -1.2170 hc         1 DLH       0.067200
     37 H15          1.8930     0.8860    -0.5090 hc         1 DLH       0.071950
     38 H16          1.8930    -0.8860    -0.5090 hc         1 DLH       0.071950
     39 H17          1.9020    -2.1310     1.6860 hc         1 DLH       0.071950
     40 H18          1.9130    -1.2170     3.2050 hc         1 DLH       0.071950
     41 C3          -1.3400    -2.0230     0.3150 c          1 DLH       0.661100
     42 Cl          -5.6180    -6.3750    -2.3590 cl         1 DLH      -0.112400
@<TRIPOS>BOND
     1    22    15 1
     2    22    12 1
     3    18    12 1
     4    18     2 1
     5     9    15 ar
     6     9    10 ar
     7    15    16 ar
     8    20    41 2
     9    12    17 1
    10    12    21 1
    11    17     1 1
    12    13    41 1
    13    13    14 1
    14    41    19 1
    15     2    19 1
    16    10    11 ar
    17    19     1 1
    18     4    14 ar
    19     4     6 ar
    20    14     5 ar
    21    16    21 1
    22    16     8 ar
    23     6     3 ar
    24    11     8 ar
    25     5     7 ar
    26     3     7 ar
    27     3    42 1
    28     1    23 1
    29     1    24 1
    30     2    25 1
    31     2    26 1
    32     4    27 1
    33     5    28 1
    34     6    29 1
    35     7    30 1
    36     8    31 1
    37     9    32 1
    38    10    33 1
    39    11    34 1
    40    13    35 1
    41    13    36 1
    42    17    37 1
    43    17    38 1
    44    18    39 1
    45    18    40 1
@<TRIPOS>SUBSTRUCTURE
     1 DLH         1 TEMP              0 ****  ****    0 ROOT
