@<TRIPOS>MOLECULE
DLI
   51    54     1     0     0
SMALL
bcc


@<TRIPOS>ATOM
      1 C4           0.0000     0.0000     0.0000 ca         1 DLI       0.128900
      2 C5           1.3950     0.0000     0.0000 ca         1 DLI      -0.129000
      3 C6           2.0920     0.0000     1.2080 ca         1 DLI       0.148900
      4 C7          -2.2090     0.0010     1.2120 c3         1 DLI       0.001600
      5 C8          -2.8290    -1.2230     1.9140 c3         1 DLI       0.214800
      6 C10         -2.3460    -7.9010     3.2510 c3         1 DLI       0.019700
      7 C17         -7.7260    -1.8750     2.5990 ca         1 DLI       0.671900
      8 C20         -5.2320    -2.8680     2.5030 ca         1 DLI      -0.371600
      9 C21         -6.1800    -5.0660     3.0650 cp         1 DLI      -0.233500
     10 C24         -7.0720    -7.3140     3.0100 ca         1 DLI      -0.132000
     11 C26         -4.8650    -6.9140     3.9080 ca         1 DLI      -0.160500
     12 C1           1.3950     0.0000     2.4160 ca         1 DLI       0.094900
     13 C2           0.0010     0.0010     2.4160 ca         1 DLI      -0.084000
     14 C3          -0.6990     0.0010     1.2080 ca         1 DLI      -0.185300
     15 C9          -2.8700     1.1730     1.9560 c3         1 DLI      -0.120500
     16 F10         -0.6620     0.0010    -1.1660 f          1 DLI      -0.110900
     17 N11         -4.1640    -0.7660     2.2990 nh         1 DLI      -0.529300
     18 C12         -4.3110     0.6810     2.1420 c3         1 DLI       0.177800
     19 F13          3.4320    -0.0000     1.2070 f          1 DLI      -0.084900
     20 C14         -5.4580    -1.5010     2.2500 ca         1 DLI       0.542200
     21 F15          2.0660     0.0000     3.5760 f          1 DLI      -0.087900
     22 N16         -6.7430    -1.0030     2.3030 nb         1 DLI      -0.662000
     23 N18         -7.5910    -3.1910     2.8510 nb         1 DLI      -0.618000
     24 C19         -6.3260    -3.6560     2.7950 cp         1 DLI       0.522800
     25 N22         -2.8130     2.4250     1.2170 nz         1 DLI       0.096400
     26 C23         -7.2130    -5.9510     2.7490 ca         1 DLI       0.013000
     27 C25         -5.8990    -7.7950     3.5910 ca         1 DLI       0.036000
     28 C27         -5.0050    -5.5510     3.6460 ca         1 DLI       0.027000
     29 S1          -3.3960    -7.5170     4.6340 sy         1 DLI       0.816300
     30 O2          -2.7800    -6.4240     5.3730 o          1 DLI      -0.567300
     31 O1          -3.6840    -8.7750     5.3090 o          1 DLI      -0.567300
     32 H5           1.9360    -0.0000    -0.9380 ha         1 DLI       0.157000
     33 H7          -2.5550     0.0140     0.1850 hc         1 DLI       0.051700
     34 H81         -2.8970    -2.0580     1.2280 h1         1 DLI       0.046700
     35 H82         -2.2510    -1.4890     2.7910 h1         1 DLI       0.046700
     36 H101        -2.1400    -6.9960     2.6910 h1         1 DLI       0.062700
     37 H102        -1.4150    -8.3230     3.6100 h1         1 DLI       0.062700
     38 H103        -2.8420    -8.6180     2.6080 h1         1 DLI       0.062700
     39 H17         -8.7320    -1.4760     2.6370 h5         1 DLI       0.002100
     40 H20         -4.2330    -3.2760     2.4190 ha         1 DLI       0.139000
     41 H24         -7.8740    -7.9980     2.7640 ha         1 DLI       0.122000
     42 H2          -0.5400     0.0020     3.3550 ha         1 DLI       0.135000
     43 H9          -2.4020     1.2960     2.9260 hx         1 DLI       0.107700
     44 H121        -4.9060     0.9090     1.2660 h1         1 DLI       0.041700
     45 H122        -4.7490     1.1160     3.0320 h1         1 DLI       0.041700
     46 H221        -3.3690     3.1140     1.6840 hn         1 DLI       0.227467
     47 H222        -3.1660     2.2820     0.2920 hn         1 DLI       0.227467
     48 H23         -8.1250    -5.5790     2.2980 ha         1 DLI       0.124000
     49 H25         -5.7900    -8.8530     3.7940 ha         1 DLI       0.130000
     50 H27         -4.2020    -4.8680     3.8930 ha         1 DLI       0.120000
     51 H223        -1.8660     2.6140     0.9540 hn         1 DLI       0.227467
@<TRIPOS>BOND
     1     1     2 ar  
     2     1    14 ar  
     3     1    16 1   
     4     2     3 ar  
     5     2    32 1   
     6     3    12 ar  
     7     3    19 1   
     8     4     5 1   
     9     4    14 1   
    10     4    15 1   
    11     4    33 1   
    12     5    17 1   
    13     5    34 1   
    14     5    35 1   
    15     6    29 1   
    16     6    36 1   
    17     6    37 1   
    18     6    38 1   
    19     7    22 ar  
    20     7    23 ar  
    21     7    39 1   
    22     8    20 ar  
    23     8    24 ar  
    24     8    40 1   
    25     9    24 1   
    26     9    26 ar  
    27     9    28 ar  
    28    10    26 ar  
    29    10    27 ar  
    30    10    41 1   
    31    11    27 ar  
    32    11    28 ar  
    33    11    29 1   
    34    12    13 ar  
    35    12    21 1   
    36    13    14 ar  
    37    13    42 1   
    38    15    18 1   
    39    15    25 1   
    40    15    43 1   
    41    17    18 1   
    42    17    20 1   
    43    18    44 1   
    44    18    45 1   
    45    20    22 ar  
    46    23    24 ar  
    47    25    46 1   
    48    25    47 1   
    49    25    51 1   
    50    26    48 1   
    51    27    49 1   
    52    28    50 1   
    53    29    30 2   
    54    29    31 2   
@<TRIPOS>SUBSTRUCTURE
     1 DLI         1 TEMP              0 ****  ****    0 ROOT
