@<TRIPOS>MOLECULE
DLJ
   52    55     1     0     0
SMALL
bcc


@<TRIPOS>ATOM
      1 C10          0.0000     0.0000     0.0000 c3         1 DLJ       0.202400
      2 C15          4.0400     0.0000     2.3940 c3         1 DLJ       0.152800
      3 C17          1.6440    -0.1390     2.5090 c3         1 DLJ      -0.049400
      4 C20         -1.6160    -2.1560    -3.2990 cc         1 DLJ      -0.266800
      5 C21         -2.3570    -3.2890    -3.8590 ca         1 DLJ       0.329100
      6 C22         -3.4840    -3.4580    -3.0310 ca         1 DLJ      -0.295500
      7 C28         -2.9980    -5.0600    -5.1960 ca         1 DLJ       0.339200
      8 C02         -3.6950     1.1310    -1.6920 ca         1 DLJ      -0.030600
      9 C03         -4.1550     2.3160    -2.2410 ca         1 DLJ      -0.103000
     10 C04         -3.3240     3.0740    -3.0410 ca         1 DLJ      -0.099000
     11 C05         -2.0320     2.6510    -3.2950 ca         1 DLJ      -0.112000
     12 C06         -1.5710     1.4680    -2.7460 ca         1 DLJ      -0.064000
     13 C07         -2.4020     0.7110    -1.9400 ca         1 DLJ      -0.111300
     14 C08         -1.9000    -0.5790    -1.3440 c3         1 DLJ       0.328600
     15 C11          1.5300     0.0000     0.0000 c3         1 DLJ      -0.071400
     16 C12          2.0390     0.6890     1.2680 c3         1 DLJ       0.135500
     17 C16          2.8870    -0.0060     3.4280 c3         1 DLJ      -0.030400
     18 C18         -2.3030    -1.7320    -2.2260 cd         1 DLJ      -0.303300
     19 C23         -4.3930    -4.4860    -3.3270 ca         1 DLJ      -0.074600
     20 C27         -4.1300    -5.2950    -4.4350 ca         1 DLJ      -0.187300
     21 N13          3.5120     0.7620     1.2430 n3         1 DLJ      -0.550600
     22 N19         -3.4210    -2.5000    -2.0540 na         1 DLJ       0.400600
     23 N29         -2.1600    -4.0900    -4.9010 nb         1 DLJ      -0.567000
     24 O09         -0.4750    -0.5330    -1.2390 os         1 DLJ      -0.395600
     25 O25         -5.8030    -3.9910    -1.5310 o          1 DLJ      -0.888800
     26 O26         -6.4510    -5.6990    -2.7920 o          1 DLJ      -0.888800
     27 Cl1         -4.7400     0.1780    -0.6850 cl         1 DLJ      -0.004400
     28 H1          -0.3610    -0.6110     0.8180 h1         1 DLJ      -0.004800
     29 H2          -0.3610     1.0140     0.1190 h1         1 DLJ      -0.004800
     30 H3           4.2820    -1.0130     2.0950 h1         1 DLJ       0.010700
     31 H4           4.9110     0.4970     2.8060 h1         1 DLJ       0.010700
     32 H5           0.7690     0.2850     2.9880 hc         1 DLJ       0.025700
     33 H6           1.4780    -1.1740     2.2400 hc         1 DLJ       0.025700
     34 H7          -0.6150    -1.8500    -3.5770 ha         1 DLJ       0.126000
     35 H8          -2.7980    -5.6900    -6.0550 h4         1 DLJ      -0.041900
     36 H9          -5.1680     2.6470    -2.0450 ha         1 DLJ       0.111000
     37 H10         -3.6840     4.0010    -3.4710 ha         1 DLJ       0.097000
     38 H11         -1.3810     3.2450    -3.9250 ha         1 DLJ       0.098000
     39 H12         -0.5590     1.1370    -2.9430 ha         1 DLJ       0.123000
     40 H13         -2.3300    -0.7110    -0.3580 h1         1 DLJ       0.016700
     41 H14          1.8910     0.5330    -0.8710 hc         1 DLJ       0.037700
     42 H15          1.8910    -1.0210    -0.0260 hc         1 DLJ       0.037700
     43 H16          1.6230     1.6870     1.3440 h1         1 DLJ       0.037700
     44 H17          5.1220     0.1700     0.0390 h1         1 DLJ       0.008367
     45 H18          3.7700     0.9070    -0.8330 h1         1 DLJ       0.008367
     46 H19          3.6280    -0.7440    -0.2110 h1         1 DLJ       0.008367
     47 H20          2.8600     0.9250     3.9820 hc         1 DLJ       0.019200
     48 H21          2.9690    -0.8590     4.0920 hc         1 DLJ       0.019200
     49 H22         -4.8060    -6.1000    -4.6970 ha         1 DLJ       0.134000
     50 H24         -4.0930    -2.3800    -1.3220 hn         1 DLJ       0.151700
     51 C14          4.0430     0.2390    -0.0240 c3         1 DLJ       0.165100
     52 C24         -5.5910    -4.7060    -2.4910 c          1 DLJ       0.981200
@<TRIPOS>BOND
     1     1    15 1   
     2     1    24 1   
     3     1    28 1   
     4     1    29 1   
     5     2    17 1   
     6     2    21 1   
     7     2    30 1   
     8     2    31 1   
     9     3    16 1   
    10     3    17 1   
    11     3    32 1   
    12     3    33 1   
    13     4     5 1   
    14     4    18 2   
    15     4    34 1   
    16     5     6 ar  
    17     5    23 ar  
    18     6    19 ar  
    19     6    22 1   
    20     7    20 ar  
    21     7    23 ar  
    22     7    35 1   
    23     8     9 ar  
    24     8    13 ar  
    25     8    27 1   
    26     9    10 ar  
    27     9    36 1   
    28    10    11 ar  
    29    10    37 1   
    30    11    12 ar  
    31    11    38 1   
    32    12    13 ar  
    33    12    39 1   
    34    13    14 1   
    35    14    18 1   
    36    14    24 1   
    37    14    40 1   
    38    15    16 1   
    39    15    41 1   
    40    15    42 1   
    41    16    21 1   
    42    16    43 1   
    43    17    47 1   
    44    17    48 1   
    45    18    22 1   
    46    19    20 ar  
    47    19    52 1   
    48    20    49 1   
    49    21    51 1   
    50    22    50 1   
    51    25    52 1   
    52    26    52 1   
    53    44    51 1   
    54    45    51 1   
    55    46    51 1   
@<TRIPOS>SUBSTRUCTURE
     1 DLJ         1 TEMP              0 ****  ****    0 ROOT
