@<TRIPOS>MOLECULE
molecule
   52    55     1     0     0
SMALL
bcc


@<TRIPOS>ATOM
      1 C10          0.0000     0.0000     0.0000 c3         1 DLJ       0.136400
      2 C15          4.0400     0.0000     2.3940 c3         1 DLJ       0.149800
      3 C17          1.6440    -0.1390     2.5090 c3         1 DLJ      -0.102400
      4 C20         -1.6160    -2.1560    -3.2990 cc         1 DLJ      -0.285800
      5 C21         -2.3570    -3.2890    -3.8590 ca         1 DLJ       0.379100
      6 C22         -3.4840    -3.4580    -3.0310 ca         1 DLJ      -0.112500
      7 C28         -2.9980    -5.0600    -5.1960 ca         1 DLJ       0.366200
      8 C02         -3.6950     1.1310    -1.6920 ca         1 DLJ       0.037400
      9 C03         -4.1550     2.3160    -2.2410 ca         1 DLJ      -0.124000
     10 C04         -3.3240     3.0740    -3.0410 ca         1 DLJ      -0.125000
     11 C05         -2.0320     2.6510    -3.2950 ca         1 DLJ      -0.138000
     12 C06         -1.5710     1.4680    -2.7460 ca         1 DLJ      -0.091000
     13 C07         -2.4020     0.7110    -1.9400 ca         1 DLJ      -0.096300
     14 C08         -1.9000    -0.5790    -1.3440 c3         1 DLJ       0.259600
     15 C11          1.5300     0.0000     0.0000 c3         1 DLJ      -0.102400
     16 C12          2.0390     0.6890     1.2680 c3         1 DLJ       0.160500
     17 C16          2.8870    -0.0060     3.4280 c3         1 DLJ      -0.092400
     18 C18         -2.3030    -1.7320    -2.2260 cd         1 DLJ      -0.086300
     19 C23         -4.3930    -4.4860    -3.3270 ca         1 DLJ      -0.085600
     20 C27         -4.1300    -5.2950    -4.4350 ca         1 DLJ      -0.213300
     21 N13          3.5120     0.7620     1.2430 n3         1 DLJ      -0.714600
     22 N19         -3.4210    -2.5000    -2.0540 na         1 DLJ      -0.142400
     23 N29         -2.1600    -4.0900    -4.9010 nb         1 DLJ      -0.689000
     24 O09         -0.4750    -0.5330    -1.2390 os         1 DLJ      -0.413600
     25 O25         -5.8030    -3.9910    -1.5310 o          1 DLJ      -0.839300
     26 O26         -6.4510    -5.6990    -2.7920 o          1 DLJ      -0.839300
     27 Cl1         -4.7400     0.1780    -0.6850 cl         1 DLJ      -0.093400
     28 H1          -0.3610    -0.6110     0.8180 h1         1 DLJ       0.026700
     29 H2          -0.3610     1.0140     0.1190 h1         1 DLJ       0.026700
     30 H3           4.2820    -1.0130     2.0950 h1         1 DLJ       0.039700
     31 H4           4.9110     0.4970     2.8060 h1         1 DLJ       0.039700
     32 H5           0.7690     0.2850     2.9880 hc         1 DLJ       0.053200
     33 H6           1.4780    -1.1740     2.2400 hc         1 DLJ       0.053200
     34 H7          -0.6150    -1.8500    -3.5770 ha         1 DLJ       0.150000
     35 H8          -2.7980    -5.6900    -6.0550 h4         1 DLJ      -0.002900
     36 H9          -5.1680     2.6470    -2.0450 ha         1 DLJ       0.140000
     37 H10         -3.6840     4.0010    -3.4710 ha         1 DLJ       0.126000
     38 H11         -1.3810     3.2450    -3.9250 ha         1 DLJ       0.126000
     39 H12         -0.5590     1.1370    -2.9430 ha         1 DLJ       0.152000
     40 H13         -2.3300    -0.7110    -0.3580 h1         1 DLJ       0.057700
     41 H14          1.8910     0.5330    -0.8710 hc         1 DLJ       0.060700
     42 H15          1.8910    -1.0210    -0.0260 hc         1 DLJ       0.060700
     43 H16          1.6230     1.6870     1.3440 h1         1 DLJ       0.068700
     44 H17          5.1220     0.1700     0.0390 h1         1 DLJ       0.035700
     45 H18          3.7700     0.9070    -0.8330 h1         1 DLJ       0.035700
     46 H19          3.6280    -0.7440    -0.2110 h1         1 DLJ       0.035700
     47 H20          2.8600     0.9250     3.9820 hc         1 DLJ       0.049700
     48 H21          2.9690    -0.8590     4.0920 hc         1 DLJ       0.049700
     49 H22         -4.8060    -6.1000    -4.6970 ha         1 DLJ       0.159000
     50 H24         -4.0930    -2.3800    -1.3220 hn         1 DLJ       0.327700
     51 C14          4.0430     0.2390    -0.0240 c3         1 DLJ       0.139100
     52 C24         -5.5910    -4.7060    -2.4910 c          1 DLJ       0.887200
@<TRIPOS>BOND
     1     2    21 1
     2     2    17 1
     3    51    21 1
     4    21    16 1
     5    17     3 1
     6    16     3 1
     7    16    15 1
     8    15     1 1
     9     1    24 1
    10    24    14 1
    11     4     5 1
    12     4    18 2
    13    12    11 ar
    14    12    13 ar
    15    11    10 ar
    16    23     5 ar
    17    23     7 ar
    18    14    18 1
    19    14    13 1
    20     5     6 ar
    21    18    22 1
    22    13     8 ar
    23     7    20 ar
    24    10     9 ar
    25     6    22 1
    26     6    19 ar
    27     8     9 ar
    28     8    27 1
    29    20    19 ar
    30    19    52 1
    31    52    25 1
    32    52    26 1
    33     1    28 1
    34     1    29 1
    35     2    30 1
    36     2    31 1
    37     3    32 1
    38     3    33 1
    39     4    34 1
    40     7    35 1
    41     9    36 1
    42    10    37 1
    43    11    38 1
    44    12    39 1
    45    14    40 1
    46    15    41 1
    47    15    42 1
    48    16    43 1
    49    51    44 1
    50    51    45 1
    51    51    46 1
    52    17    47 1
    53    17    48 1
    54    20    49 1
    55    22    50 1
@<TRIPOS>SUBSTRUCTURE
     1 DLJ         1 TEMP              0 ****  ****    0 ROOT
