@<TRIPOS>MOLECULE
molecule
   46    48     1     0     0
SMALL
bcc


@<TRIPOS>ATOM
      1 C12          0.0000     0.0000     0.0000 c3         1 DLK      -0.167900
      2 C13          0.5380    -3.4430     3.6470 c3         1 DLK      -0.082900
      3 C14         -0.2110    -2.9040     2.4550 c2         1 DLK       0.299800
      4 C15         -1.3100    -4.8510     1.6480 ca         1 DLK       0.158600
      5 C01          2.0330     1.2320    -0.7090 ca         1 DLK      -0.083300
      6 C02          2.8280     1.1060    -1.8330 ca         1 DLK      -0.122500
      7 C03          3.2890     2.2350    -2.4840 ca         1 DLK      -0.125000
      8 C04          2.9570     3.4900    -2.0090 ca         1 DLK      -0.128000
      9 C05          2.1620     3.6160    -0.8850 ca         1 DLK      -0.125000
     10 C06          1.6960     2.4860    -0.2380 ca         1 DLK      -0.122500
     11 C07          1.5310     0.0000     0.0000 c3         1 DLK      -0.018400
     12 C08          2.0350     0.0000     1.4450 c3         1 DLK      -0.167900
     13 C09          1.5070    -1.2160     2.1600 c          1 DLK       0.591800
     14 C10          0.2640    -1.7830     1.7850 ce         1 DLK      -0.406400
     15 C11         -0.5010    -1.2170     0.7350 c          1 DLK       0.591800
     16 C16         -0.1010    -5.5260     1.5700 ca         1 DLK      -0.161000
     17 C17         -0.0750    -6.8550     1.1880 ca         1 DLK      -0.127000
     18 C18         -1.2530    -7.5140     0.8850 ca         1 DLK      -0.127000
     19 C19         -2.4620    -6.8470     0.9610 ca         1 DLK      -0.185000
     20 C20         -2.4960    -5.5160     1.3430 ca         1 DLK       0.096100
     21 C21         -4.8590    -5.6040     1.0900 c3         1 DLK       0.132700
     22 N01         -1.3390    -3.5080     2.0390 nu         1 DLK      -0.657400
     23 O01         -1.5630    -1.7150     0.4260 o          1 DLK      -0.561600
     24 O02          2.1510    -1.7150     3.0600 o          1 DLK      -0.561600
     25 O03         -3.6840    -4.8590     1.4180 os         1 DLK      -0.333900
     26 H1          -0.3600     0.8940     0.4950 hc         1 DLK       0.074700
     27 H2          -0.3600    -0.0230    -1.0210 hc         1 DLK       0.074700
     28 H3          -0.0280    -4.2530     4.0920 hc         1 DLK       0.071033
     29 H4           0.6730    -2.6540     4.3760 hc         1 DLK       0.071033
     30 H5           1.5060    -3.8110     3.3280 hc         1 DLK       0.071033
     31 H6           3.0910     0.1220    -2.2030 ha         1 DLK       0.130500
     32 H7           3.9120     2.1360    -3.3640 ha         1 DLK       0.130500
     33 H8           3.3200     4.3750    -2.5170 ha         1 DLK       0.130000
     34 H9           1.9000     4.6000    -0.5140 ha         1 DLK       0.130500
     35 H10          1.0730     2.5850     0.6430 ha         1 DLK       0.130500
     36 H11          1.8910    -0.8870    -0.5070 hc         1 DLK       0.065700
     37 H12          3.1180    -0.0230     1.4480 hc         1 DLK       0.074700
     38 H13          1.6860     0.8930     1.9480 hc         1 DLK       0.074700
     39 H14          0.8230    -5.0130     1.8070 ha         1 DLK       0.144000
     40 H15          0.8690    -7.3820     1.1280 ha         1 DLK       0.134000
     41 H16         -1.2280    -8.5550     0.5860 ha         1 DLK       0.132000
     42 H17         -3.3820    -7.3660     0.7230 ha         1 DLK       0.138000
     43 H18         -4.7880    -5.9610     0.0690 h1         1 DLK       0.042033
     44 H19         -5.7300    -4.9680     1.1900 h1         1 DLK       0.042033
     45 H20         -4.9510    -6.4490     1.7620 h1         1 DLK       0.042033
     46 H22         -2.2070    -3.0100     2.0530 hn         1 DLK       0.487800
@<TRIPOS>BOND
     1     8     9 ar
     2     8     7 ar
     3     9    10 ar
     4     7     6 ar
     5    10     5 ar
     6     6     5 ar
     7     5    11 1
     8     1    11 1
     9     1    15 1
    10    11    12 1
    11    23    15 2
    12    12    13 1
    13    15    14 1
    14    13    14 1
    15    13    24 2
    16    14     3 2
    17     3    22 1
    18     3     2 1
    19    22     4 1
    20    16     4 ar
    21    16    17 ar
    22     4    20 ar
    23    17    18 ar
    24    20    25 1
    25    20    19 ar
    26    25    21 1
    27    18    19 ar
    28     1    26 1
    29     1    27 1
    30     2    28 1
    31     2    29 1
    32     2    30 1
    33     6    31 1
    34     7    32 1
    35     8    33 1
    36     9    34 1
    37    10    35 1
    38    11    36 1
    39    12    37 1
    40    12    38 1
    41    16    39 1
    42    17    40 1
    43    18    41 1
    44    19    42 1
    45    21    43 1
    46    21    44 1
    47    21    45 1
    48    22    46 1
@<TRIPOS>SUBSTRUCTURE
     1 DLK         1 TEMP              0 ****  ****    0 ROOT
