@<TRIPOS>MOLECULE
DLK
   46    48     1     0     0
SMALL
bcc


@<TRIPOS>ATOM
      1 C12          0.0000     0.0000     0.0000 c3         1 DLK      -0.116900
      2 C13          0.5380    -3.4430     3.6470 c3         1 DLK       0.006100
      3 C14         -0.2110    -2.9040     2.4550 c2         1 DLK       0.150800
      4 C15         -1.3100    -4.8510     1.6480 ca         1 DLK      -0.006400
      5 C01          2.0330     1.2320    -0.7090 ca         1 DLK      -0.092300
      6 C02          2.8280     1.1060    -1.8330 ca         1 DLK      -0.096500
      7 C03          3.2890     2.2350    -2.4840 ca         1 DLK      -0.096500
      8 C04          2.9570     3.4900    -2.0090 ca         1 DLK      -0.101000
      9 C05          2.1620     3.6160    -0.8850 ca         1 DLK      -0.096500
     10 C06          1.6960     2.4860    -0.2380 ca         1 DLK      -0.096500
     11 C07          1.5310     0.0000     0.0000 c3         1 DLK       0.020600
     12 C08          2.0350     0.0000     1.4450 c3         1 DLK      -0.116900
     13 C09          1.5070    -1.2160     2.1600 c          1 DLK       0.649800
     14 C10          0.2640    -1.7830     1.7850 ce         1 DLK      -0.437400
     15 C11         -0.5010    -1.2170     0.7350 c          1 DLK       0.649800
     16 C16         -0.1010    -5.5260     1.5700 ca         1 DLK      -0.138000
     17 C17         -0.0750    -6.8550     1.1880 ca         1 DLK      -0.101000
     18 C18         -1.2530    -7.5140     0.8850 ca         1 DLK      -0.092000
     19 C19         -2.4620    -6.8470     0.9610 ca         1 DLK      -0.174000
     20 C20         -2.4960    -5.5160     1.3430 ca         1 DLK       0.110100
     21 C21         -4.8590    -5.6040     1.0900 c3         1 DLK       0.250700
     22 N01         -1.3390    -3.5080     2.0390 nu         1 DLK      -0.183400
     23 O01         -1.5630    -1.7150     0.4260 o          1 DLK      -0.601100
     24 O02          2.1510    -1.7150     3.0600 o          1 DLK      -0.601100
     25 O03         -3.6840    -4.8590     1.4180 os         1 DLK      -0.311900
     26 H1          -0.3600     0.8940     0.4950 hc         1 DLK       0.044200
     27 H2          -0.3600    -0.0230    -1.0210 hc         1 DLK       0.044200
     28 H3           0.6730    -2.6540     4.3760 hc         1 DLK       0.038033
     29 H4          -0.0280    -4.2530     4.0920 hc         1 DLK       0.038033
     30 H5           1.5060    -3.8110     3.3280 hc         1 DLK       0.038033
     31 H6           3.0910     0.1220    -2.2030 ha         1 DLK       0.107000
     32 H7           3.9120     2.1360    -3.3640 ha         1 DLK       0.103000
     33 H8           3.3200     4.3750    -2.5170 ha         1 DLK       0.103000
     34 H9           1.9000     4.6000    -0.5140 ha         1 DLK       0.103000
     35 H10          1.0730     2.5850     0.6430 ha         1 DLK       0.107000
     36 H11          1.8910    -0.8870    -0.5070 hc         1 DLK       0.037700
     37 H12          1.6860     0.8930     1.9480 hc         1 DLK       0.044200
     38 H13          3.1180    -0.0230     1.4480 hc         1 DLK       0.044200
     39 H14          0.8230    -5.0130     1.8070 ha         1 DLK       0.125000
     40 H15          0.8690    -7.3820     1.1280 ha         1 DLK       0.105000
     41 H16         -1.2280    -8.5550     0.5860 ha         1 DLK       0.103000
     42 H17         -3.3820    -7.3660     0.7230 ha         1 DLK       0.120000
     43 H18         -5.7300    -4.9680     1.1900 h1         1 DLK      -0.001633
     44 H19         -4.7880    -5.9610     0.0690 h1         1 DLK      -0.001633
     45 H20         -4.9510    -6.4490     1.7620 h1         1 DLK      -0.001633
     46 H22         -2.2070    -3.0100     2.0530 hn         1 DLK       0.326800
@<TRIPOS>BOND
     1     1    11 1   
     2     1    15 1   
     3     1    26 1   
     4     1    27 1   
     5     2     3 1   
     6     2    28 1   
     7     2    29 1   
     8     2    30 1   
     9     3    14 2   
    10     3    22 1   
    11     4    16 ar  
    12     4    20 ar  
    13     4    22 1   
    14     5     6 ar  
    15     5    10 ar  
    16     5    11 1   
    17     6     7 ar  
    18     6    31 1   
    19     7     8 ar  
    20     7    32 1   
    21     8     9 ar  
    22     8    33 1   
    23     9    10 ar  
    24     9    34 1   
    25    10    35 1   
    26    11    12 1   
    27    11    36 1   
    28    12    13 1   
    29    12    37 1   
    30    12    38 1   
    31    13    14 1   
    32    13    24 2   
    33    14    15 1   
    34    15    23 2   
    35    16    17 ar  
    36    16    39 1   
    37    17    18 ar  
    38    17    40 1   
    39    18    19 ar  
    40    18    41 1   
    41    19    20 ar  
    42    19    42 1   
    43    20    25 1   
    44    21    25 1   
    45    21    43 1   
    46    21    44 1   
    47    21    45 1   
    48    22    46 1   
@<TRIPOS>SUBSTRUCTURE
     1 DLK         1 TEMP              0 ****  ****    0 ROOT
