@<TRIPOS>MOLECULE
DLL
   51    54     1     0     0
SMALL
bcc


@<TRIPOS>ATOM
      1 O            0.0000     0.0000     0.0000 o          1 DLL      -0.556000
      2 CB           1.9620     0.0000     1.3050 c3         1 DLL      -0.043100
      3 CG           0.9830     0.0010     2.4500 ca         1 DLL      -0.049300
      4 CD2          0.5330    -1.1960     2.9770 ca         1 DLL      -0.084000
      5 CD1          0.5390     1.1980     2.9790 ca         1 DLL      -0.084000
      6 CE2         -0.3660    -1.1940     4.0280 ca         1 DLL      -0.107000
      7 CE1         -0.3590     1.2000     4.0300 ca         1 DLL      -0.107000
      8 CZ          -0.8130     0.0030     4.5520 ca         1 DLL      -0.119000
      9 P            1.0030    -0.0010    -2.5120 p5         1 DLL       0.917800
     10 O2P          0.0630     1.1420    -2.4910 o          1 DLL      -0.636500
     11 O3P          0.1710    -1.3760    -2.6130 o          1 DLL      -0.636500
     12 O1P          1.8790    -0.0020    -1.1620 os         1 DLL      -0.464500
     13 O5'          1.9790     0.1290    -3.7860 os         1 DLL      -0.503200
     14 C5'          1.4970     0.2620    -5.1250 c3         1 DLL       0.312400
     15 O4'          3.4070    -0.8790    -6.1010 os         1 DLL      -0.373600
     16 O3'          2.6920     1.8480    -8.0230 oh         1 DLL      -0.560800
     17 C2'          2.7340    -0.5790    -8.3340 c3         1 DLL       0.123100
     18 O2'          3.2080    -0.1480    -9.6110 oh         1 DLL      -0.547800
     19 C1'          3.9070    -1.0600    -7.4420 c3         1 DLL       0.140800
     20 N9           4.2030    -2.4720    -7.6960 na         1 DLL       0.219000
     21 C8           3.6580    -3.5400    -7.0470 cc         1 DLL       0.273700
     22 N7           4.1450    -4.6470    -7.5270 nd         1 DLL      -0.521100
     23 C5           5.0300    -4.3620    -8.5130 ca         1 DLL      -0.240200
     24 C6           5.8400    -5.1300    -9.3660 ca         1 DLL       0.586200
     25 CAZ          1.2080     0.0000     0.0000 c          1 DLL       0.752100
     26 N6           5.8360    -6.5110    -9.2930 nv         1 DLL      -0.495500
     27 C4'          2.6830     0.3630    -6.0860 c3         1 DLL       0.139100
     28 N1           6.6120    -4.4970   -10.2440 nb         1 DLL      -0.756000
     29 C3'          2.1770     0.6150    -7.5190 c3         1 DLL       0.128100
     30 C2           6.6230    -3.1800   -10.3210 ca         1 DLL       0.670900
     31 C4           5.0740    -2.9640    -8.6370 ca         1 DLL       0.266800
     32 N3           5.8810    -2.4200    -9.5420 nb         1 DLL      -0.661000
     33 HB1C         2.5850     0.8840     1.3630 hc         1 DLL       0.024700
     34 HB2C         2.5840    -0.8850     1.3630 hc         1 DLL       0.024700
     35 HD2          0.8840    -2.1350     2.5650 ha         1 DLL       0.104500
     36 HD1          0.8940     2.1360     2.5690 ha         1 DLL       0.104500
     37 HE2         -0.7200    -2.1320     4.4390 ha         1 DLL       0.091500
     38 HE1         -0.7090     2.1390     4.4420 ha         1 DLL       0.091500
     39 HZ          -1.5170     0.0040     5.3760 ha         1 DLL       0.089000
     40 H5'1         0.8970    -0.6030    -5.3800 h1         1 DLL      -0.009300
     41 H5'2         0.8920     1.1570    -5.2030 h1         1 DLL      -0.009300
     42 H4'          3.3420     1.1680    -5.7840 h1         1 DLL       0.042700
     43 H1'          4.7840    -0.4450    -7.6060 h2         1 DLL       0.065700
     44 H3'          1.9760     2.4230    -8.2380 ho         1 DLL       0.385000
     45 HA           1.0940     0.6120    -7.5420 h1         1 DLL       0.017700
     46 H2'          1.9860    -1.3560    -8.4340 h1         1 DLL       0.020700
     47 HB           2.5560    -0.3350   -10.2670 ho         1 DLL       0.381000
     48 H8           2.9280    -3.4760    -6.2490 h5         1 DLL       0.057800
     49 H61N         6.4300    -7.0460    -9.8950 hn         1 DLL       0.272800
     50 H62N         5.2310    -6.9760    -8.6450 hn         1 DLL       0.272800
     51 H2           7.2680    -2.7050   -11.0510 h5         1 DLL      -0.010900
@<TRIPOS>BOND
     1     1    25 2   
     2     2     3 1   
     3     2    25 1   
     4     2    33 1   
     5     2    34 1   
     6     3     4 ar  
     7     3     5 ar  
     8     4     6 ar  
     9     4    35 1   
    10     5     7 ar  
    11     5    36 1   
    12     6     8 ar  
    13     6    37 1   
    14     7     8 ar  
    15     7    38 1   
    16     8    39 1   
    17     9    10 1   
    18     9    11 1   
    19     9    12 1   
    20     9    13 1   
    21    12    25 1   
    22    13    14 1   
    23    14    27 1   
    24    14    40 1   
    25    14    41 1   
    26    15    19 1   
    27    15    27 1   
    28    16    29 1   
    29    16    44 1   
    30    17    18 1   
    31    17    19 1   
    32    17    29 1   
    33    17    46 1   
    34    18    47 1   
    35    19    20 1   
    36    19    43 1   
    37    20    21 1   
    38    20    31 1   
    39    21    22 2   
    40    21    48 1   
    41    22    23 1   
    42    23    24 ar  
    43    23    31 ar  
    44    24    26 1   
    45    24    28 ar  
    46    26    49 1   
    47    26    50 1   
    48    27    29 1   
    49    27    42 1   
    50    28    30 ar  
    51    29    45 1   
    52    30    32 ar  
    53    30    51 1   
    54    31    32 ar  
@<TRIPOS>SUBSTRUCTURE
     1 DLL         1 TEMP              0 ****  ****    0 ROOT
