@<TRIPOS>MOLECULE
DLM
   33    35     1     0     0
SMALL
bcc


@<TRIPOS>ATOM
      1 O12         0.4480    1.5970    0.2150 os        1 DLM     -0.178000
      2 C11         1.6820    0.8050    0.3430 c3        1 DLM     -0.020000
      3 C14         2.1330    0.3050   -0.9960 ca        1 DLM     -0.122000
      4 C15         2.7350   -0.9560   -1.0840 ca        1 DLM     -0.175000
      5 C1         -2.1990   -0.7290    2.4270 ca        1 DLM     -0.394000
      6 C2         -0.8380   -1.0620    2.3630 ca        1 DLM      0.312000
      7 C3          0.0490   -0.2630    1.5920 ca        1 DLM     -0.299000
      8 C18         2.3360    0.6010   -3.3770 ca        1 DLM      0.052500
      9 C19         1.9260    1.0880   -2.1330 ca        1 DLM     -0.175000
     10 C17         2.9520   -0.6640   -3.4990 ca        1 DLM      0.099000
     11 O24         3.3830   -1.1830   -4.6830 oh        1 DLM     -0.197000
     12 C16         3.1440   -1.4420   -2.3290 ca        1 DLM      0.052500
     13 C10         2.7740    1.6580    0.9050 c2        1 DLM      0.315000
     14 O27         3.7260    1.1220    1.5960 oh        1 DLM     -0.094000
     15 C9          1.4150   -0.3370    1.3450 c1        1 DLM     -0.052000
     16 C4         -0.5250    0.8880    0.9020 ca        1 DLM      0.168000
     17 C5         -1.8470    1.2410    0.9520 ca        1 DLM     -0.231000
     18 C6         -2.6880    0.3930    1.7350 ca        1 DLM      0.271000
     19 O29        -3.9910    0.7540    1.7650 oh        1 DLM     -0.198000
     20 O30        -0.3100   -2.1260    3.0050 oh        1 DLM     -0.186000
     21 H1          2.8640   -1.5780   -0.1820 ha        1 DLM      0.159500
     22 H2         -2.8890   -1.3500    3.0180 ha        1 DLM      0.169000
     23 H3          3.7300   -3.1300   -1.6520 ho        1 DLM      0.236000
     24 H4          1.6130    2.0610   -4.3870 ho        1 DLM      0.236000
     25 H5          1.4210    2.0630   -2.0590 ha        1 DLM      0.159500
     26 H6          3.1540   -0.5600   -5.3960 ho        1 DLM      0.252000
     27 H7          3.5830    0.1380    1.7580 ho        1 DLM      0.345000
     28 H8          2.8530    2.7580    0.7490 h4        1 DLM      0.238000
     29 H9         -2.2670    2.1130    0.4320 ha        1 DLM      0.198000
     30 H10        -4.4960    0.1280    2.3150 ho        1 DLM      0.257000
     31 H11        -1.0140   -2.6000    3.4850 ho        1 DLM      0.255000
     32 O21         3.7480   -2.6590   -2.5010 oh        1 DLM     -0.226500
     33 O22         2.1940    1.3030   -4.5520 oh        1 DLM     -0.226500
@<TRIPOS>BOND
     1    1    2 1   
     2    1   16 1   
     3    2    3 1   
     4    2   13 1   
     5    2   15 1   
     6    3    4 1   
     7    3    9 1   
     8    4   12 1   
     9    4   21 1   
    10    5    6 1   
    11    5   18 1   
    12    5   22 1   
    13    6    7 1   
    14    6   20 1   
    15    7   15 1   
    16    7   16 1   
    17    8    9 1   
    18    8   10 1   
    19    8   33 1   
    20    9   25 1   
    21   10   11 1   
    22   10   12 1   
    23   11   26 1   
    24   12   32 1   
    25   13   14 1   
    26   13   28 1   
    27   14   27 1   
    28   16   17 1   
    29   17   18 1   
    30   17   29 1   
    31   18   19 1   
    32   19   30 1   
    33   20   31 1   
    34   23   32 1   
    35   24   33 1   
@<TRIPOS>SUBSTRUCTURE
     1 DLM         1 TEMP              0 ****  ****    0 ROOT
