@<TRIPOS>MOLECULE
molecule
   37    39     1     0     0
SMALL
bcc


@<TRIPOS>ATOM
      1 C20          0.0000     0.0000     0.0000 c3         1 DLN      -0.138100
      2 C19          1.5290     0.0000     0.0000 c3         1 DLN       0.090000
      3 C21          2.0390     0.0000     1.4430 c3         1 DLN      -0.138100
      4 N7           2.0180    -1.1970    -0.6900 na         1 DLN      -0.010800
      5 N8           1.7470    -2.5160    -0.3080 nc         1 DLN      -0.483100
      6 C3           2.8000    -1.1970    -1.8060 ca         1 DLN       0.542800
      7 N2           3.3350    -0.2460    -2.5710 nb         1 DLN      -0.799000
      8 C1           4.0690    -0.5590    -3.6160 ca         1 DLN       0.757900
      9 N6           4.3180    -1.8080    -3.9660 nb         1 DLN      -0.861000
     10 C5           3.8290    -2.8260    -3.2650 ca         1 DLN       0.769200
     11 N10          4.0920    -4.1320    -3.6350 nv         1 DLN      -1.000500
     12 C4           3.0390    -2.5430    -2.1400 ca         1 DLN      -0.539500
     13 C11          2.2630    -5.9520    -1.0490 cg         1 DLN      -0.151000
     14 C12          2.2830    -7.6070    -1.0250 ca         1 DLN       0.158000
     15 C13          3.2300    -8.0180    -1.3050 ca         1 DLN      -0.094000
     16 C17          0.9570    -7.8820    -0.6180 ca         1 DLN      -0.116000
     17 C16          0.7900    -9.1630    -0.5440 ca         1 DLN      -0.136000
     18 C15          1.9260   -10.1400    -0.8710 ca         1 DLN      -0.172000
     19 C14          3.1510    -9.5780    -1.2530 ca         1 DLN       0.023100
     20 O18          4.1880   -10.4570    -1.6790 oh         1 DLN      -0.509100
     21 CAI          2.3350    -3.3490    -1.1390 cd         1 DLN       0.467800
     22 CAM          2.2920    -4.7790    -1.0790 ch         1 DLN      -0.140200
     23 H201        -0.3590     0.5600     0.8550 hc         1 DLN       0.052200
     24 H202        -0.5930    -0.2750    -0.8640 hc         1 DLN       0.052200
     25 H203         0.0480    -0.9870     0.4440 hc         1 DLN       0.052200
     26 H19          1.5590     0.9890    -0.4400 h1         1 DLN       0.102700
     27 H211         1.7590    -0.8920     1.9890 hc         1 DLN       0.052200
     28 H212         3.0550     0.3180     1.6460 hc         1 DLN       0.052200
     29 H213         1.5170     0.7680     2.0000 hc         1 DLN       0.052200
     30 H1           4.6130     0.0950    -4.2870 h5         1 DLN       0.065100
     31 H101         4.8780    -4.1060    -4.2530 hn         1 DLN       0.463300
     32 H102         3.5270    -4.8850    -3.2980 hn         1 DLN       0.463300
     33 H13          4.1520    -7.8400    -1.8450 ha         1 DLN       0.181000
     34 H17         -0.0460    -7.5170    -0.4290 ha         1 DLN       0.186000
     35 H16         -0.0260    -9.7810    -0.1890 ha         1 DLN       0.137000
     36 H15          1.7950   -11.2150    -0.8410 ha         1 DLN       0.156000
     37 H18          4.7930   -10.5050    -0.9570 ho         1 DLN       0.413000
@<TRIPOS>BOND
     1     1     2 1
     2     2     3 1
     3     2     4 1
     4     4     5 1
     5     4     6 1
     6     5    21 2
     7     6     7 ar
     8     6    12 ar
     9     7     8 ar
    10     8     9 ar
    11     9    10 ar
    12    10    11 1
    13    10    12 ar
    14    12    21 1
    15    13    14 1
    16    13    22 3
    17    14    15 ar
    18    14    16 ar
    19    15    19 ar
    20    16    17 ar
    21    17    18 ar
    22    18    19 ar
    23    19    20 1
    24    21    22 1
    25     1    23 1
    26     1    24 1
    27     1    25 1
    28     2    26 1
    29     3    27 1
    30     3    28 1
    31     3    29 1
    32     8    30 1
    33    11    31 1
    34    11    32 1
    35    15    33 1
    36    16    34 1
    37    17    35 1
    38    18    36 1
    39    20    37 1
@<TRIPOS>SUBSTRUCTURE
     1 DLN         1 TEMP              0 ****  ****    0 ROOT
