@<TRIPOS>MOLECULE
DLP
  134   133     1     0     0
SMALL
bcc


@<TRIPOS>ATOM
      1 C1           0.0000     0.0000     0.0000 c3         1 DLP       0.225400
      2 C2           1.5300     0.0000     0.0000 c3         1 DLP       0.168100
      3 C3           2.0410     0.0000     1.4420 c3         1 DLP       0.238400
      4 C4          -4.1080    -2.2840     1.3000 c3         1 DLP       0.229400
      5 C5          -4.7490    -3.4910     1.9880 c3         1 DLP      -0.034200
      6 C6          -5.3160    -2.1780     3.9130 c3         1 DLP       0.008433
      7 C7          -5.1400    -4.5630     4.0980 c3         1 DLP       0.008433
      8 C8          -3.1680    -3.2360     3.7730 c3         1 DLP       0.008433
      9 C11          1.7700    -1.3230     3.4510 c          1 DLP       0.691100
     10 C12          1.1690    -2.4860     4.1970 c3         1 DLP      -0.065400
     11 C13          1.6780    -2.4870     5.6390 c3         1 DLP      -0.023400
     12 C14          1.0690    -3.6680     6.3960 c3         1 DLP      -0.026400
     13 C15          1.5790    -3.6690     7.8370 c3         1 DLP      -0.028400
     14 C16          0.9700    -4.8510     8.5940 c3         1 DLP      -0.028400
     15 C17          1.4800    -4.8510    10.0370 c3         1 DLP      -0.023400
     16 C18          0.8700    -6.0320    10.7930 c3         1 DLP      -0.004200
     17 C19          1.3730    -6.0330    12.2140 c2         1 DLP      -0.159200
     18 C20          0.5220    -6.0660    13.2100 c2         1 DLP      -0.149200
     19 C21         -0.9470    -6.2680    12.9400 c3         1 DLP       0.019000
     20 C22         -1.4620    -7.4040    13.7860 c2         1 DLP      -0.153200
     21 C23         -2.5070    -7.2270    14.5550 c2         1 DLP      -0.159200
     22 C24         -3.2920    -5.9430    14.4750 c3         1 DLP      -0.004200
     23 C25         -4.7740    -6.2640    14.2740 c3         1 DLP      -0.022400
     24 C26         -5.5710    -4.9600    14.1920 c3         1 DLP      -0.030400
     25 C27         -7.0540    -5.2810    13.9920 c3         1 DLP      -0.028400
     26 C28         -7.8510    -3.9770    13.9100 c3         1 DLP       0.006900
     27 C32          2.7390    -2.3820    -2.7190 c3         1 DLP      -0.068400
     28 C33          2.9090    -2.0770    -4.2090 c3         1 DLP      -0.021400
     29 C34          3.4180    -3.3260    -4.9300 c3         1 DLP      -0.030400
     30 C35          3.5880    -3.0220    -6.4200 c3         1 DLP      -0.027400
     31 C36          4.0980    -4.2710    -7.1420 c3         1 DLP      -0.029400
     32 C37          4.2670    -3.9660    -8.6310 c3         1 DLP      -0.023400
     33 C38          4.7770    -5.2150    -9.3530 c3         1 DLP      -0.005200
     34 C39          4.9440    -4.9140   -10.8200 c2         1 DLP      -0.158200
     35 C40          6.0880    -5.1550   -11.4120 c2         1 DLP      -0.154200
     36 C41          7.1810    -5.8810   -10.6720 c3         1 DLP       0.015000
     37 C42          7.6590    -7.0470   -11.4980 c2         1 DLP      -0.149200
     38 C43          8.9240    -7.1420   -11.8260 c2         1 DLP      -0.159200
     39 C44          9.8660    -6.0040   -11.5300 c3         1 DLP      -0.007200
     40 C45         10.9750    -6.4910   -10.5940 c3         1 DLP      -0.024400
     41 C46         11.9320    -5.3350   -10.2950 c3         1 DLP      -0.031400
     42 C47         13.0410    -5.8210    -9.3580 c3         1 DLP      -0.028400
     43 C48         13.9970    -4.6650    -9.0580 c3         1 DLP       0.005900
     44 N           -4.5930    -3.3660     3.4430 n4         1 DLP       0.062200
     45 O2           2.0140    -1.1850    -0.6850 os         1 DLP      -0.404900
     46 O3           1.4620    -1.1210     2.1600 os         1 DLP      -0.362900
     47 O11          2.5280    -0.5700     4.0160 o          1 DLP      -0.611000
     48 O31          2.0350    -0.1350    -2.6290 o          1 DLP      -0.596000
     49 O1P         -2.5700     0.2380     1.4460 o          1 DLP      -0.662000
     50 O2P         -2.5610    -1.0230    -0.7400 o          1 DLP      -0.662000
     51 O3P         -0.4760    -1.1040     0.7730 os         1 DLP      -0.442200
     52 O4P         -2.6910    -2.3340     1.4740 os         1 DLP      -0.489200
     53 P           -2.0840    -1.0420     0.7300 p5         1 DLP       0.892800
     54 HC11        -0.3610     0.9250     0.4320 h1         1 DLP       0.028700
     55 HC12        -0.3610    -0.0890    -1.0170 h1         1 DLP       0.028700
     56 HC2          1.8910     0.8850    -0.5110 h1         1 DLP       0.039700
     57 HC31         3.1210    -0.0900     1.4420 h1         1 DLP       0.009700
     58 HC32         1.7550     0.9260     1.9270 h1         1 DLP       0.009700
     59 HC41        -4.4930    -1.3710     1.7390 h1         1 DLP       0.047200
     60 HC42        -4.3430    -2.3030     0.2430 h1         1 DLP       0.047200
     61 HC51        -5.8030    -3.5300     1.7390 hx         1 DLP       0.065200
     62 HC52        -4.2650    -4.3990     1.6490 hx         1 DLP       0.065200
     63 HC61        -6.2610    -2.0990     3.3900 hx         1 DLP       0.071033
     64 HC62        -4.7210    -1.2930     3.7190 hx         1 DLP       0.071033
     65 HC63        -5.4980    -2.2630     4.9770 hx         1 DLP       0.071033
     66 HC71        -5.0560    -4.4560     5.1730 hx         1 DLP       0.071033
     67 HC72        -6.1830    -4.6780     3.8270 hx         1 DLP       0.071033
     68 HC73        -4.5850    -5.4360     3.7780 hx         1 DLP       0.071033
     69 HC81        -2.8610    -2.2040     3.6490 hx         1 DLP       0.071033
     70 HC82        -2.5850    -3.8670     3.1130 hx         1 DLP       0.071033
     71 HC83        -3.0060    -3.5390     4.8000 hx         1 DLP       0.071033
     72 H121         1.4550    -3.4120     3.7120 hc         1 DLP       0.027700
     73 H122         0.0890    -2.3970     4.1950 hc         1 DLP       0.027700
     74 H131         2.7580    -2.5750     5.6400 hc         1 DLP       0.031700
     75 H132         1.3920    -1.5610     6.1230 hc         1 DLP       0.031700
     76 H141         1.3560    -4.5940     5.9110 hc         1 DLP       0.004700
     77 H142        -0.0100    -3.5800     6.3950 hc         1 DLP       0.004700
     78 H151         2.6590    -3.7580     7.8380 hc         1 DLP       0.019700
     79 H152         1.2930    -2.7430     8.3220 hc         1 DLP       0.019700
     80 H161         1.2570    -5.7760     8.1100 hc         1 DLP       0.009700
     81 H162        -0.1090    -4.7620     8.5930 hc         1 DLP       0.009700
     82 H171         1.1930    -3.9250    10.5210 hc         1 DLP       0.018200
     83 H172         2.5600    -4.9400    10.0380 hc         1 DLP       0.018200
     84 H181        -0.2100    -5.9430    10.7920 hc         1 DLP       0.024700
     85 H182         1.1560    -6.9580    10.3090 hc         1 DLP       0.024700
     86 H19          2.4280    -5.8880    12.4110 ha         1 DLP       0.105000
     87 H20          0.8860    -6.0660    14.2300 ha         1 DLP       0.105000
     88 H211        -1.0930    -6.5020    11.8920 hc         1 DLP       0.036700
     89 H212        -1.4860    -5.3610    13.1850 hc         1 DLP       0.036700
     90 H22         -0.9700    -8.3690    13.7530 ha         1 DLP       0.104000
     91 H23         -2.7890    -7.9900    15.2700 ha         1 DLP       0.104000
     92 H241        -2.9340    -5.3520    13.6400 hc         1 DLP       0.026200
     93 H242        -3.1650    -5.3840    15.3940 hc         1 DLP       0.026200
     94 H251        -5.1330    -6.8540    15.1080 hc         1 DLP       0.015200
     95 H252        -4.9010    -6.8230    13.3550 hc         1 DLP       0.015200
     96 H261        -5.2140    -4.3700    13.3570 hc         1 DLP       0.014200
     97 H262        -5.4440    -4.4010    15.1110 hc         1 DLP       0.014200
     98 H271        -7.4120    -5.8710    14.8260 hc         1 DLP       0.011700
     99 H272        -7.1810    -5.8410    13.0730 hc         1 DLP       0.011700
    100 H281        -7.5010    -3.3930    13.0680 hc         1 DLP       0.000033
    101 H282        -7.7140    -3.4120    14.8240 hc         1 DLP       0.000033
    102 H283        -8.9020    -4.2050    13.7800 hc         1 DLP       0.000033
    103 H321         3.6940    -2.6770    -2.2990 hc         1 DLP       0.032700
    104 H322         2.0260    -3.1880    -2.5940 hc         1 DLP       0.032700
    105 H331         1.9550    -1.7820    -4.6280 hc         1 DLP       0.030700
    106 H332         3.6230    -1.2720    -4.3330 hc         1 DLP       0.030700
    107 H341         4.3730    -3.6220    -4.5110 hc         1 DLP       0.011200
    108 H342         2.7050    -4.1320    -4.8060 hc         1 DLP       0.011200
    109 H351         4.3020    -2.2170    -6.5450 hc         1 DLP       0.017700
    110 H352         2.6340    -2.7260    -6.8390 hc         1 DLP       0.017700
    111 H361         5.0520    -4.5660    -6.7230 hc         1 DLP       0.012700
    112 H362         3.3840    -5.0760    -7.0170 hc         1 DLP       0.012700
    113 H371         4.9810    -3.1610    -8.7550 hc         1 DLP       0.016200
    114 H372         3.3130    -3.6710    -9.0500 hc         1 DLP       0.016200
    115 H381         5.7310    -5.5100    -8.9340 hc         1 DLP       0.025700
    116 H382         4.0630    -6.0210    -9.2290 hc         1 DLP       0.025700
    117 H39          4.1600    -4.3920   -11.3540 ha         1 DLP       0.103000
    118 H40          6.2050    -4.9370   -12.4670 ha         1 DLP       0.103000
    119 H411         8.0070    -5.2040   -10.4920 hc         1 DLP       0.041700
    120 H412         6.7980    -6.2430    -9.7250 hc         1 DLP       0.041700
    121 H42          6.9590    -7.8130   -11.8110 ha         1 DLP       0.103000
    122 H43          9.2820    -8.0180   -12.3540 ha         1 DLP       0.101000
    123 H441        10.3050    -5.6490   -12.4550 hc         1 DLP       0.028700
    124 H442         9.3210    -5.1980   -11.0560 hc         1 DLP       0.028700
    125 H451        10.5370    -6.8460    -9.6690 hc         1 DLP       0.015200
    126 H452        11.5200    -7.2980   -11.0680 hc         1 DLP       0.015200
    127 H461        11.3870    -4.5280    -9.8210 hc         1 DLP       0.014700
    128 H462        12.3700    -4.9800   -11.2200 hc         1 DLP       0.014700
    129 H471        13.5870    -6.6280    -9.8330 hc         1 DLP       0.011700
    130 H472        12.6030    -6.1760    -8.4340 hc         1 DLP       0.011700
    131 H481        13.4500    -3.8560    -8.5900 hc         1 DLP       0.000033
    132 H482        14.4400    -4.3140    -9.9820 hc         1 DLP       0.000033
    133 H483        14.7790    -5.0070    -8.3900 hc         1 DLP       0.000033
    134 C31          2.2370    -1.1520    -2.0080 c          1 DLP       0.699100
@<TRIPOS>BOND
     1     1     2 1
     2     1    51 1
     3     1    54 1
     4     1    55 1
     5     2     3 1
     6     2    45 1
     7     2    56 1
     8     3    46 1
     9     3    57 1
    10     3    58 1
    11     4     5 1
    12     4    52 1
    13     4    59 1
    14     4    60 1
    15     5    44 1
    16     5    61 1
    17     5    62 1
    18     6    44 1
    19     6    63 1
    20     6    64 1
    21     6    65 1
    22     7    44 1
    23     7    66 1
    24     7    67 1
    25     7    68 1
    26     8    44 1
    27     8    69 1
    28     8    70 1
    29     8    71 1
    30     9    10 1
    31     9    46 1
    32     9    47 2
    33    10    11 1
    34    10    72 1
    35    10    73 1
    36    11    12 1
    37    11    74 1
    38    11    75 1
    39    12    13 1
    40    12    76 1
    41    12    77 1
    42    13    14 1
    43    13    78 1
    44    13    79 1
    45    14    15 1
    46    14    80 1
    47    14    81 1
    48    15    16 1
    49    15    82 1
    50    15    83 1
    51    16    17 1
    52    16    84 1
    53    16    85 1
    54    17    18 2
    55    17    86 1
    56    18    19 1
    57    18    87 1
    58    19    20 1
    59    19    88 1
    60    19    89 1
    61    20    21 2
    62    20    90 1
    63    21    22 1
    64    21    91 1
    65    22    23 1
    66    22    92 1
    67    22    93 1
    68    23    24 1
    69    23    94 1
    70    23    95 1
    71    24    25 1
    72    24    96 1
    73    24    97 1
    74    25    26 1
    75    25    98 1
    76    25    99 1
    77    26   100 1
    78    26   101 1
    79    26   102 1
    80    27    28 1
    81    27   103 1
    82    27   104 1
    83    27   134 1
    84    28    29 1
    85    28   105 1
    86    28   106 1
    87    29    30 1
    88    29   107 1
    89    29   108 1
    90    30    31 1
    91    30   109 1
    92    30   110 1
    93    31    32 1
    94    31   111 1
    95    31   112 1
    96    32    33 1
    97    32   113 1
    98    32   114 1
    99    33    34 1
   100    33   115 1
   101    33   116 1
   102    34    35 2
   103    34   117 1
   104    35    36 1
   105    35   118 1
   106    36    37 1
   107    36   119 1
   108    36   120 1
   109    37    38 2
   110    37   121 1
   111    38    39 1
   112    38   122 1
   113    39    40 1
   114    39   123 1
   115    39   124 1
   116    40    41 1
   117    40   125 1
   118    40   126 1
   119    41    42 1
   120    41   127 1
   121    41   128 1
   122    42    43 1
   123    42   129 1
   124    42   130 1
   125    43   131 1
   126    43   132 1
   127    43   133 1
   128    45   134 1
   129    48   134 2
   130    49    53 1
   131    50    53 1
   132    51    53 1
   133    52    53 1
@<TRIPOS>SUBSTRUCTURE
     1 DLP         1 TEMP              0 ****  ****    0 ROOT
