@<TRIPOS>MOLECULE
DLR
   37    40     1     0     0
SMALL
bcc


@<TRIPOS>ATOM
      1 CAJ          0.0000     0.0000     0.0000 ca         1 DLR       0.015000
      2 CAS          1.4000     0.0000     0.0000 ca         1 DLR      -0.270900
      3 CAI          2.4140     0.0000     1.0490 cc         1 DLR       0.444800
      4 NAM          3.5830     0.0010     0.4730 nd         1 DLR      -0.632100
      5 NAN          3.4320     0.0020    -0.9180 na         1 DLR       0.418900
      6 CAT          2.0960     0.0020    -1.2240 ca         1 DLR      -0.177200
      7 CAH          1.3800     0.0030    -2.4180 ca         1 DLR      -0.111000
      8 CAG          0.0150     0.0020    -2.3930 ca         1 DLR      -0.052000
      9 CAR         -0.6750    -0.0000    -1.1860 ca         1 DLR      -0.156300
     10 CAU         -2.1810    -0.0010    -1.1870 c3         1 DLR       0.219100
     11 SAO         -2.8310     1.7180    -1.2300 ss         1 DLR      -0.391200
     12 CAK         -4.1970     1.3140    -2.3910 c3         1 DLR       0.023700
     13 CAP         -3.6970     0.0420    -3.0460 c          1 DLR       0.622500
     14 OAA         -4.1820    -0.3820    -4.0740 o          1 DLR      -0.665500
     15 NAV         -2.7000    -0.5840    -2.4330 n          1 DLR      -0.138800
     16 CAL         -2.1320    -1.8190    -2.9810 c3         1 DLR       0.095300
     17 CAQ         -2.8760    -3.0050    -2.4210 ca         1 DLR      -0.131300
     18 CAE         -3.9880    -3.4970    -3.0790 ca         1 DLR      -0.085000
     19 CAC         -4.6690    -4.5850    -2.5660 ca         1 DLR      -0.104000
     20 CAB         -4.2380    -5.1800    -1.3950 ca         1 DLR      -0.093000
     21 CAD         -3.1260    -4.6890    -0.7380 ca         1 DLR      -0.104000
     22 CAF         -2.4420    -3.6040    -1.2540 ca         1 DLR      -0.085000
     23 HAJ         -0.5450    -0.0020     0.9360 ha         1 DLR       0.109000
     24 HAI          2.2290    -0.0010     2.1160 h4         1 DLR       0.015800
     25 HAN          4.1800     0.0030    -1.5830 hn         1 DLR       0.154700
     26 HAH          1.9050     0.0040    -3.3660 ha         1 DLR       0.109000
     27 HAG         -0.5380     0.0020    -3.3250 ha         1 DLR       0.120000
     28 HAU         -2.5710    -0.5330    -0.3270 h2         1 DLR       0.062700
     29 HAK1        -4.3220     2.1000    -3.1260 h1         1 DLR       0.072700
     30 HAK2        -5.1190     1.1310    -1.8510 h1         1 DLR       0.072700
     31 HAL1        -1.0860    -1.8880    -2.7090 h1         1 DLR       0.049200
     32 HAL2        -2.2250    -1.8110    -4.0600 h1         1 DLR       0.049200
     33 HAE         -4.3250    -3.0310    -3.9970 ha         1 DLR       0.115500
     34 HAF         -1.5700    -3.2190    -0.7390 ha         1 DLR       0.115500
     35 HAC         -5.5410    -4.9700    -3.0810 ha         1 DLR       0.104500
     36 HAB         -4.7730    -6.0320    -0.9920 ha         1 DLR       0.102000
     37 HAD         -2.7870    -5.1570     0.1780 ha         1 DLR       0.104500
@<TRIPOS>BOND
     1     1     2 ar  
     2     1     9 ar  
     3     1    23 1   
     4     2     3 1   
     5     2     6 ar  
     6     3     4 2   
     7     3    24 1   
     8     4     5 1   
     9     5     6 1   
    10     5    25 1   
    11     6     7 ar  
    12     7     8 ar  
    13     7    26 1   
    14     8     9 ar  
    15     8    27 1   
    16     9    10 1   
    17    10    11 1   
    18    10    15 1   
    19    10    28 1   
    20    11    12 1   
    21    12    13 1   
    22    12    29 1   
    23    12    30 1   
    24    13    14 2   
    25    13    15 1   
    26    15    16 1   
    27    16    17 1   
    28    16    31 1   
    29    16    32 1   
    30    17    18 ar  
    31    17    22 ar  
    32    18    19 ar  
    33    18    33 1   
    34    19    20 ar  
    35    19    35 1   
    36    20    21 ar  
    37    20    36 1   
    38    21    22 ar  
    39    21    37 1   
    40    22    34 1   
@<TRIPOS>SUBSTRUCTURE
     1 DLR         1 TEMP              0 ****  ****    0 ROOT
