@<TRIPOS>MOLECULE
DLT
   28    27     1     0     0
SMALL
bcc


@<TRIPOS>ATOM
      1 CAF          0.0000     0.0000     0.0000 c3         1 DLT      -0.052200
      2 CAE          1.5300     0.0000     0.0000 c3         1 DLT       0.203900
      3 CAA         -0.0000    -1.1990     2.0770 c3         1 DLT      -0.010900
      4 CAH         -0.0000     1.1990     2.0770 c3         1 DLT      -0.010900
      5 CAJ         -1.9590     0.0000     1.3840 c3         1 DLT      -0.032200
      6 CAK         -2.4700    -0.0000     2.8260 c3         1 DLT      -0.034400
      7 CAL         -3.9990     0.0000     2.8260 c3         1 DLT      -0.129400
      8 CAM         -4.5020    -0.0000     4.2460 c          1 DLT       0.974600
      9 N3          -0.4900     0.0000     1.3840 n4         1 DLT       0.064200
     10 OAC         -5.8220     0.0000     4.4910 o          1 DLT      -0.873300
     11 F26          1.9970    -0.0000    -1.3190 f          1 DLT      -0.193300
     12 OAB         -3.7180    -0.0000     5.1650 o          1 DLT      -0.873300
     13 HAF1        -0.3610    -0.8840    -0.5110 hx         1 DLT       0.085700
     14 HAF2        -0.3610     0.8840    -0.5110 hx         1 DLT       0.085700
     15 HAE1         1.8910     0.8840     0.5110 h1         1 DLT       0.030700
     16 HAE2         1.8910    -0.8840     0.5110 h1         1 DLT       0.030700
     17 HAA1        -0.2830    -2.0810     1.5160 hx         1 DLT       0.078700
     18 HAA2         1.0790    -1.1530     2.1590 hx         1 DLT       0.078700
     19 HAA3        -0.4360    -1.2470     3.0680 hx         1 DLT       0.078700
     20 HAH1         1.0790     1.1530     2.1590 hx         1 DLT       0.078700
     21 HAH2        -0.2830     2.0810     1.5160 hx         1 DLT       0.078700
     22 HAH3        -0.4360     1.2470     3.0680 hx         1 DLT       0.078700
     23 HAJ1        -2.3200    -0.8840     0.8730 hx         1 DLT       0.072200
     24 HAJ2        -2.3200     0.8840     0.8740 hx         1 DLT       0.072200
     25 HAK1        -2.1090    -0.8850     3.3370 hc         1 DLT       0.041700
     26 HAK2        -2.1090     0.8850     3.3370 hc         1 DLT       0.041700
     27 HAL1        -4.3600     0.8850     2.3150 hc         1 DLT       0.017700
     28 HAL2        -4.3600    -0.8850     2.3150 hc         1 DLT       0.017700
@<TRIPOS>BOND
     1     1     2 1   
     2     1     9 1   
     3     1    13 1   
     4     1    14 1   
     5     2    11 1   
     6     2    15 1   
     7     2    16 1   
     8     3     9 1   
     9     3    17 1   
    10     3    18 1   
    11     3    19 1   
    12     4     9 1   
    13     4    20 1   
    14     4    21 1   
    15     4    22 1   
    16     5     6 1   
    17     5     9 1   
    18     5    23 1   
    19     5    24 1   
    20     6     7 1   
    21     6    25 1   
    22     6    26 1   
    23     7     8 1   
    24     7    27 1   
    25     7    28 1   
    26     8    10 1   
    27     8    12 1   
@<TRIPOS>SUBSTRUCTURE
     1 DLT         1 TEMP              0 ****  ****    0 ROOT
