@<TRIPOS>MOLECULE
molecule
   28    27     1     0     0
SMALL
bcc


@<TRIPOS>ATOM
      1 CAF          0.0000     0.0000     0.0000 c3         1 DLT       0.064800
      2 CAE          1.5300     0.0000     0.0000 c3         1 DLT       0.147900
      3 CAA         -0.0000    -1.1990     2.0770 c3         1 DLT       0.085100
      4 CAH         -0.0000     1.1990     2.0770 c3         1 DLT       0.085100
      5 CAJ         -1.9590     0.0000     1.3840 c3         1 DLT       0.087800
      6 CAK         -2.4700    -0.0000     2.8260 c3         1 DLT      -0.088400
      7 CAL         -3.9990     0.0000     2.8260 c3         1 DLT      -0.183400
      8 CAM         -4.5020    -0.0000     4.2460 c          1 DLT       0.890600
      9 N3          -0.4900     0.0000     1.3840 n4         1 DLT      -0.569800
     10 OAC         -5.8220     0.0000     4.4910 o          1 DLT      -0.823300
     11 F26          1.9970    -0.0000    -1.3190 f          1 DLT      -0.209300
     12 OAB         -3.7180    -0.0000     5.1650 o          1 DLT      -0.823300
     13 HAF1        -0.3610    -0.8840    -0.5110 hx         1 DLT       0.107700
     14 HAF2        -0.3610     0.8840    -0.5110 hx         1 DLT       0.107700
     15 HAE1         1.8910     0.8840     0.5110 h1         1 DLT       0.061700
     16 HAE2         1.8910    -0.8840     0.5110 h1         1 DLT       0.061700
     17 HAA1        -0.2830    -2.0810     1.5160 hx         1 DLT       0.098700
     18 HAA2         1.0790    -1.1530     2.1590 hx         1 DLT       0.098700
     19 HAA3        -0.4360    -1.2470     3.0680 hx         1 DLT       0.098700
     20 HAH1         1.0790     1.1530     2.1590 hx         1 DLT       0.098700
     21 HAH2        -0.2830     2.0810     1.5160 hx         1 DLT       0.098700
     22 HAH3        -0.4360     1.2470     3.0680 hx         1 DLT       0.098700
     23 HAJ1        -2.3200    -0.8840     0.8730 hx         1 DLT       0.092700
     24 HAJ2        -2.3200     0.8840     0.8740 hx         1 DLT       0.092700
     25 HAK1        -2.1090    -0.8850     3.3370 hc         1 DLT       0.064700
     26 HAK2        -2.1090     0.8850     3.3370 hc         1 DLT       0.064700
     27 HAL1        -4.3600     0.8850     2.3150 hc         1 DLT       0.042700
     28 HAL2        -4.3600    -0.8850     2.3150 hc         1 DLT       0.042700
@<TRIPOS>BOND
     1     1     2 1
     2     1     9 1
     3     2    11 1
     4     3     9 1
     5     4     9 1
     6     5     6 1
     7     5     9 1
     8     6     7 1
     9     7     8 1
    10     8    12 1
    11     8    10 1
    12     1    13 1
    13     1    14 1
    14     2    15 1
    15     2    16 1
    16     3    17 1
    17     3    18 1
    18     3    19 1
    19     4    20 1
    20     4    21 1
    21     4    22 1
    22     5    23 1
    23     5    24 1
    24     6    25 1
    25     6    26 1
    26     7    27 1
    27     7    28 1
@<TRIPOS>SUBSTRUCTURE
     1 DLT         1 TEMP              0 ****  ****    0 ROOT
