@<TRIPOS>MOLECULE
molecule
   49    52     1     0     0
SMALL
bcc


@<TRIPOS>ATOM
      1 CAA          0.0000     0.0000     0.0000 c3         1 DLU      -0.100100
      2 OAB          5.1780     0.9400     7.4990 o          1 DLU      -0.644100
      3 OAC          0.5040     1.5600     1.9440 o          1 DLU      -0.579500
      4 OAD          1.3120     2.0860     6.9070 o          1 DLU      -0.576100
      5 OAE          0.0490     1.9330     4.4140 oh         1 DLU      -0.460100
      6 CAH          1.7360     1.7600    12.7780 ca         1 DLU      -0.187000
      7 CAI          2.6330     1.3590    11.8070 ca         1 DLU      -0.062000
      8 CAJ          1.6780     3.9560    11.8180 ca         1 DLU      -0.214000
      9 CAK          3.9580     0.6390     5.0040 cc         1 DLU       0.167000
     10 CAL          3.5450    -1.3560    -0.4560 c3         1 DLU       0.136400
     11 CAM          2.0390    -1.2430    -0.7350 c3         1 DLU      -0.131400
     12 CAN          4.0290     1.8130     9.7800 c3         1 DLU       0.167300
     13 CAO          4.0840    -0.0150     2.6670 c3         1 DLU       0.170800
     14 NAP          3.3230     1.6260     8.5100 ns         1 DLU      -0.573900
     15 OAQ          3.7110    -1.6830     0.9220 os         1 DLU      -0.406600
     16 CAS          1.4620     0.8810     2.2580 c          1 DLU       0.722700
     17 CAT          1.2550     3.0600    12.7840 ca         1 DLU       0.166900
     18 CAU          2.5720     3.5520    10.8420 ca         1 DLU       0.179900
     19 CAV          3.0510     2.2530    10.8380 ca         1 DLU      -0.166300
     20 CAW          1.3210     1.5170     4.6280 cd         1 DLU       0.036900
     21 CAX          3.3150     1.1550     6.1120 cd         1 DLU      -0.359400
     22 CAY          2.0610     0.9910     3.6080 cc         1 DLU      -0.002200
     23 CAZ          1.9320     1.6250     5.9620 c          1 DLU       0.555500
     24 CBA          1.5300     0.0000     0.0000 c3         1 DLU       0.122700
     25 CBB          3.0880    -0.8490     1.8620 c3         1 DLU       0.320500
     26 NBC          2.0140     0.0000     1.3790 n          1 DLU      -0.521800
     27 NBD          3.3520     0.5590     3.8140 na         1 DLU      -0.474200
     28 HAA         -0.3610    -0.4780    -0.9020 hc         1 DLU       0.053367
     29 HAAA        -0.3610    -0.5420     0.8650 hc         1 DLU       0.053367
     30 HAAB        -0.3610     1.0210     0.0370 hc         1 DLU       0.053367
     31 HAI          3.0080     0.3430    11.8030 ha         1 DLU       0.147000
     32 HAJ          1.3130     4.9770    11.8300 ha         1 DLU       0.162000
     33 HAK          4.9800     0.2900     5.1010 h4         1 DLU       0.188000
     34 HAL          3.9730    -2.1390    -1.0710 h1         1 DLU       0.058700
     35 HALA         4.0280    -0.4100    -0.6690 h1         1 DLU       0.058700
     36 HAM          1.8690    -1.1350    -1.7990 hc         1 DLU       0.069200
     37 HAMA         1.5290    -2.1240    -0.3620 hc         1 DLU       0.069200
     38 HAN          4.4660     0.8720    10.0920 h1         1 DLU       0.060200
     39 HANA         4.8130     2.5500     9.6520 h1         1 DLU       0.060200
     40 HAO          4.8880    -0.6470     3.0240 h1         1 DLU       0.082200
     41 HAOA         4.4800     0.7810     2.0490 h1         1 DLU       0.082200
     42 HNAP         2.3300     1.7430     8.4680 hn         1 DLU       0.353500
     43 HBA          1.8940     0.8870    -0.5050 h1         1 DLU       0.054700
     44 HBB          2.6250    -1.5200     2.5760 h2         1 DLU       0.067700
     45 H20         -0.0440     2.8250     4.7050 ho         1 DLU       0.441000
     46 CAR          4.0010     1.2320     7.4140 c          1 DLU       0.704300
     47 HAH          1.4090     1.0590    13.5360 ha         1 DLU       0.150000
     48 FAF          0.3750     3.4510    13.7300 f          1 DLU      -0.132900
     49 FAG          2.9770     4.4240     9.8930 f          1 DLU      -0.125900
@<TRIPOS>BOND
     1     1    24 1
     2     1    28 1
     3     1    29 1
     4     1    30 1
     5     2    46 2
     6     5    45 1
     7     6    17 ar
     8     6    47 1
     9     7     6 ar
    10     7    19 ar
    11     7    31 1
    12     8    32 1
    13     9    21 2
    14     9    27 1
    15     9    33 1
    16    10    11 1
    17    10    34 1
    18    10    35 1
    19    11    24 1
    20    11    36 1
    21    11    37 1
    22    12    19 1
    23    12    14 1
    24    12    38 1
    25    12    39 1
    26    13    27 1
    27    13    25 1
    28    13    40 1
    29    13    41 1
    30    14    42 1
    31    15    10 1
    32    46    14 1
    33    46    21 1
    34    16     3 2
    35    17    48 1
    36    17     8 ar
    37    18    49 1
    38    18     8 ar
    39    19    18 ar
    40    20     5 1
    41    21    23 1
    42    22    16 1
    43    22    20 2
    44    23     4 2
    45    23    20 1
    46    24    43 1
    47    25    15 1
    48    25    26 1
    49    25    44 1
    50    26    16 1
    51    26    24 1
    52    27    22 1
@<TRIPOS>SUBSTRUCTURE
     1 DLU         1 TEMP              0 ****  ****    0 ROOT
