@<TRIPOS>MOLECULE
DLU
   49    52     1     0     0
SMALL
bcc


@<TRIPOS>ATOM
      1 CAA          0.0000     0.0000     0.0000 c3         1 DLU      -0.022100
      2 OAB          5.1780     0.9400     7.4990 o          1 DLU      -0.689100
      3 OAC          0.5040     1.5600     1.9440 o          1 DLU      -0.620500
      4 OAD          1.3120     2.0860     6.9070 o          1 DLU      -0.620100
      5 OAE          0.0490     1.9330     4.4140 oh         1 DLU      -0.438100
      6 CAH          1.7360     1.7600    12.7780 ca         1 DLU      -0.149000
      7 CAI          2.6330     1.3590    11.8070 ca         1 DLU      -0.032000
      8 CAJ          1.6780     3.9560    11.8180 ca         1 DLU      -0.170000
      9 CAK          3.9580     0.6390     5.0040 cc         1 DLU       0.011000
     10 CAL          3.5450    -1.3560    -0.4560 c3         1 DLU       0.213400
     11 CAM          2.0390    -1.2430    -0.7350 c3         1 DLU      -0.082400
     12 CAN          4.0290     1.8130     9.7800 c3         1 DLU       0.119300
     13 CAO          4.0840    -0.0150     2.6670 c3         1 DLU       0.068800
     14 NAP          3.3230     1.6260     8.5100 ns         1 DLU      -0.209900
     15 OAQ          3.7110    -1.6830     0.9220 os         1 DLU      -0.390600
     16 CAS          1.4620     0.8810     2.2580 c          1 DLU       0.669700
     17 CAT          1.2550     3.0600    12.7840 ca         1 DLU       0.136900
     18 CAU          2.5720     3.5520    10.8420 ca         1 DLU       0.154900
     19 CAV          3.0510     2.2530    10.8380 ca         1 DLU      -0.161300
     20 CAW          1.3210     1.5170     4.6280 cc         1 DLU       0.075900
     21 CAX          3.3150     1.1550     6.1120 cd         1 DLU      -0.372400
     22 CAY          2.0610     0.9910     3.6080 cd         1 DLU      -0.209200
     23 CAZ          1.9320     1.6250     5.9620 c          1 DLU       0.608500
     24 CBA          1.5300     0.0000     0.0000 c3         1 DLU       0.054700
     25 CBB          3.0880    -0.8490     1.8620 c3         1 DLU       0.265500
     26 NBC          2.0140     0.0000     1.3790 n          1 DLU      -0.204800
     27 NBD          3.3520     0.5590     3.8140 na         1 DLU       0.015800
     28 HAA         -0.3610    -0.4780    -0.9020 hc         1 DLU       0.024033
     29 HAAA        -0.3610    -0.5420     0.8650 hc         1 DLU       0.024033
     30 HAAB        -0.3610     1.0210     0.0370 hc         1 DLU       0.024033
     31 HAI          3.0080     0.3430    11.8030 ha         1 DLU       0.115000
     32 HAJ          1.3130     4.9770    11.8300 ha         1 DLU       0.136000
     33 HAK          4.9800     0.2900     5.1010 h4         1 DLU       0.156000
     34 HAL          3.9730    -2.1390    -1.0710 h1         1 DLU       0.017700
     35 HALA         4.0280    -0.4100    -0.6690 h1         1 DLU       0.017700
     36 HAM          1.8690    -1.1350    -1.7990 hc         1 DLU       0.039700
     37 HAMA         1.5290    -2.1240    -0.3620 hc         1 DLU       0.039700
     38 HAN          4.4660     0.8720    10.0920 h1         1 DLU       0.030200
     39 HANA         4.8130     2.5500     9.6520 h1         1 DLU       0.030200
     40 HAO          4.8880    -0.6470     3.0240 h1         1 DLU       0.053200
     41 HAOA         4.4800     0.7810     2.0490 h1         1 DLU       0.053200
     42 HNAP         2.3300     1.7430     8.4680 hn         1 DLU       0.228500
     43 HBA          1.8940     0.8870    -0.5050 h1         1 DLU       0.028700
     44 HBB          2.6250    -1.5200     2.5760 h2         1 DLU       0.025700
     45 H20         -0.0440     2.8250     4.7050 ho         1 DLU       0.420000
     46 CAR          4.0010     1.2320     7.4140 c          1 DLU       0.633300
     47 HAH          1.4090     1.0590    13.5360 ha         1 DLU       0.123000
     48 FAF          0.3750     3.4510    13.7300 f          1 DLU      -0.122900
     49 FAG          2.9770     4.4240     9.8930 f          1 DLU      -0.119900
@<TRIPOS>BOND
     1     1    24 1   
     2     1    28 1   
     3     1    29 1   
     4     1    30 1   
     5     2    46 2   
     6     3    16 2   
     7     4    23 2   
     8     5    20 1   
     9     5    45 1   
    10     6     7 ar  
    11     6    17 ar  
    12     6    47 1   
    13     7    19 ar  
    14     7    31 1   
    15     8    17 ar  
    16     8    18 ar  
    17     8    32 1   
    18     9    21 2   
    19     9    27 1   
    20     9    33 1   
    21    10    11 1   
    22    10    15 1   
    23    10    34 1   
    24    10    35 1   
    25    11    24 1   
    26    11    36 1   
    27    11    37 1   
    28    12    14 1   
    29    12    19 1   
    30    12    38 1   
    31    12    39 1   
    32    13    25 1   
    33    13    27 1   
    34    13    40 1   
    35    13    41 1   
    36    14    42 1   
    37    14    46 1   
    38    15    25 1   
    39    16    22 1   
    40    16    26 1   
    41    17    48 1   
    42    18    19 ar  
    43    18    49 1   
    44    20    22 2   
    45    20    23 1   
    46    21    23 1   
    47    21    46 1   
    48    22    27 1   
    49    24    26 1   
    50    24    43 1   
    51    25    26 1   
    52    25    44 1   
@<TRIPOS>SUBSTRUCTURE
     1 DLU         1 TEMP              0 ****  ****    0 ROOT
