@<TRIPOS>MOLECULE
DLW
   49    51     1     0     0
SMALL
bcc


@<TRIPOS>ATOM
      1 C10          0.0000     0.0000     0.0000 ce         1 DLW      -0.328800
      2 C12          2.1710     0.0000     1.3410 c3         1 DLW      -0.120400
      3 C21         -5.2650    -1.8940    -2.6750 c3         1 DLW       0.197400
      4 C11          1.4680     0.0000     0.0000 c          1 DLW       0.641300
      5 C16         -1.1590     0.1160    -4.1180 ca         1 DLW      -0.106000
      6 C14         -0.7340     0.2600    -1.2440 ce         1 DLW       0.455600
      7 C22         -5.9070    -2.5570    -1.4550 c3         1 DLW       0.001900
      8 C15         -1.8860    -0.5060    -3.1030 ca         1 DLW       0.066400
      9 C13         -0.8220     1.6620    -1.7900 c3         1 DLW      -0.071400
     10 C20         -3.2070    -0.9070    -3.3410 ca         1 DLW       0.155100
     11 C17         -1.7440     0.3320    -5.3490 ca         1 DLW      -0.131000
     12 C18         -3.0490    -0.0650    -5.5800 ca         1 DLW      -0.072000
     13 C19         -3.7790    -0.6830    -4.5810 ca         1 DLW      -0.206000
     14 C01          2.1440    -1.0850     3.5750 ca         1 DLW      -0.097300
     15 C02          2.6490    -2.2990     4.0040 ca         1 DLW      -0.095500
     16 C03          3.3020    -2.3840     5.2210 ca         1 DLW      -0.096000
     17 C04          3.4480    -1.2580     6.0080 ca         1 DLW      -0.098000
     18 C05          2.9420    -0.0440     5.5780 ca         1 DLW      -0.096000
     19 C06          2.2960     0.0420     4.3590 ca         1 DLW      -0.095500
     20 C07          1.4340    -0.9920     2.2500 c3         1 DLW       0.023600
     21 C08          0.0020    -0.5090     2.4700 c3         1 DLW      -0.018200
     22 C09         -0.6870    -0.2480     1.1640 c2         1 DLW       0.161900
     23 N01         -1.3110    -0.7240    -1.8790 nf         1 DLW      -0.435100
     24 O01          2.0950    -0.0010    -1.0390 o          1 DLW      -0.555100
     25 O02         -2.0300    -0.2580     1.1300 oh         1 DLW      -0.464100
     26 O03         -3.9240    -1.5140    -2.3590 os         1 DLW      -0.285900
     27 H1           3.2010    -0.3140     1.2150 hc         1 DLW       0.043700
     28 H2           2.1340     0.9920     1.7750 hc         1 DLW       0.043700
     29 H3          -5.2470    -2.5960    -3.5000 h1         1 DLW      -0.002300
     30 H4          -5.8400    -1.0200    -2.9560 h1         1 DLW      -0.002300
     31 H5          -0.1370     0.4280    -3.9410 ha         1 DLW       0.123000
     32 H6          -5.2300    -3.2980    -1.0480 hc         1 DLW       0.010367
     33 H7          -6.8320    -3.0370    -1.7500 hc         1 DLW       0.010367
     34 H8          -6.1150    -1.8050    -0.7030 hc         1 DLW       0.010367
     35 H9          -0.0800     1.7950    -2.5670 hc         1 DLW       0.021367
     36 H10         -1.8100     1.8270    -2.2020 hc         1 DLW       0.021367
     37 H11         -0.6410     2.3720    -0.9920 hc         1 DLW       0.021367
     38 H12         -1.1790     0.8150    -6.1380 ha         1 DLW       0.104000
     39 H13         -3.5010     0.1080    -6.5490 ha         1 DLW       0.099000
     40 H14         -4.8000    -0.9910    -4.7690 ha         1 DLW       0.120000
     41 H15          2.5330    -3.1830     3.3890 ha         1 DLW       0.107500
     42 H16          3.6970    -3.3350     5.5570 ha         1 DLW       0.104000
     43 H17          3.9570    -1.3250     6.9610 ha         1 DLW       0.104000
     44 H18          3.0590     0.8400     6.1930 ha         1 DLW       0.104000
     45 H19          1.9000     0.9930     4.0220 ha         1 DLW       0.107500
     46 H20          1.4150    -1.9670     1.7760 hc         1 DLW       0.045700
     47 H21         -0.5470    -1.2670     3.0150 hc         1 DLW       0.036200
     48 H22          0.0230     0.4070     3.0480 hc         1 DLW       0.036200
     49 H23         -2.3650     0.3240     1.7920 ho         1 DLW       0.401000
@<TRIPOS>BOND
     1     1     4 1   
     2     1     6 1   
     3     1    22 2   
     4     2     4 1   
     5     2    20 1   
     6     2    27 1   
     7     2    28 1   
     8     3     7 1   
     9     3    26 1   
    10     3    29 1   
    11     3    30 1   
    12     4    24 2   
    13     5     8 ar  
    14     5    11 ar  
    15     5    31 1   
    16     6     9 1   
    17     6    23 2   
    18     7    32 1   
    19     7    33 1   
    20     7    34 1   
    21     8    10 ar  
    22     8    23 1   
    23     9    35 1   
    24     9    36 1   
    25     9    37 1   
    26    10    13 ar  
    27    10    26 1   
    28    11    12 ar  
    29    11    38 1   
    30    12    13 ar  
    31    12    39 1   
    32    13    40 1   
    33    14    15 ar  
    34    14    19 ar  
    35    14    20 1   
    36    15    16 ar  
    37    15    41 1   
    38    16    17 ar  
    39    16    42 1   
    40    17    18 ar  
    41    17    43 1   
    42    18    19 ar  
    43    18    44 1   
    44    19    45 1   
    45    20    21 1   
    46    20    46 1   
    47    21    22 1   
    48    21    47 1   
    49    21    48 1   
    50    22    25 1   
    51    25    49 1   
@<TRIPOS>SUBSTRUCTURE
     1 DLW         1 TEMP              0 ****  ****    0 ROOT
