@<TRIPOS>MOLECULE
molecule
   49    51     1     0     0
SMALL
bcc


@<TRIPOS>ATOM
      1 C10          0.0000     0.0000     0.0000 ce         1 DLW      -0.302800
      2 C12          2.1710     0.0000     1.3410 c3         1 DLW      -0.170400
      3 C21         -5.2650    -1.8940    -2.6750 c3         1 DLW       0.133400
      4 C11          1.4680     0.0000     0.0000 c          1 DLW       0.588300
      5 C16         -1.1590     0.1160    -4.1180 ca         1 DLW      -0.124000
      6 C14         -0.7340     0.2600    -1.2440 ce         1 DLW       0.508600
      7 C22         -5.9070    -2.5570    -1.4550 c3         1 DLW      -0.091100
      8 C15         -1.8860    -0.5060    -3.1030 ca         1 DLW       0.110400
      9 C13         -0.8220     1.6620    -1.7900 c3         1 DLW      -0.176400
     10 C20         -3.2070    -0.9070    -3.3410 ca         1 DLW       0.153100
     11 C17         -1.7440     0.3320    -5.3490 ca         1 DLW      -0.159000
     12 C18         -3.0490    -0.0650    -5.5800 ca         1 DLW      -0.101000
     13 C19         -3.7790    -0.6830    -4.5810 ca         1 DLW      -0.218000
     14 C01          2.1440    -1.0850     3.5750 ca         1 DLW      -0.088300
     15 C02          2.6490    -2.2990     4.0040 ca         1 DLW      -0.122000
     16 C03          3.3020    -2.3840     5.2210 ca         1 DLW      -0.124500
     17 C04          3.4480    -1.2580     6.0080 ca         1 DLW      -0.125000
     18 C05          2.9420    -0.0440     5.5780 ca         1 DLW      -0.124500
     19 C06          2.2960     0.0420     4.3590 ca         1 DLW      -0.122000
     20 C07          1.4340    -0.9920     2.2500 c3         1 DLW      -0.012400
     21 C08          0.0020    -0.5090     2.4700 c3         1 DLW      -0.079200
     22 C09         -0.6870    -0.2480     1.1640 c2         1 DLW       0.150900
     23 N01         -1.3110    -0.7240    -1.8790 nf         1 DLW      -0.546100
     24 O01          2.0950    -0.0010    -1.0390 o          1 DLW      -0.518100
     25 O02         -2.0300    -0.2580     1.1300 oh         1 DLW      -0.478100
     26 O03         -3.9240    -1.5140    -2.3590 os         1 DLW      -0.307900
     27 H1           3.2010    -0.3140     1.2150 hc         1 DLW       0.075700
     28 H2           2.1340     0.9920     1.7750 hc         1 DLW       0.075700
     29 H3          -5.8400    -1.0200    -2.9560 h1         1 DLW       0.031700
     30 H4          -5.2470    -2.5960    -3.5000 h1         1 DLW       0.031700
     31 H5          -0.1370     0.4280    -3.9410 ha         1 DLW       0.146000
     32 H6          -5.2720    -3.3620    -1.1050 hc         1 DLW       0.047033
     33 H7          -6.8770    -2.9550    -1.7290 hc         1 DLW       0.047033
     34 H8          -6.0280    -1.8240    -0.6670 hc         1 DLW       0.047033
     35 H9          -1.8060     1.8230    -2.2140 hc         1 DLW       0.054033
     36 H10         -0.0710     1.7990    -2.5580 hc         1 DLW       0.054033
     37 H11         -0.6530     2.3720    -0.9890 hc         1 DLW       0.054033
     38 H12         -1.1790     0.8150    -6.1380 ha         1 DLW       0.130000
     39 H13         -3.5010     0.1080    -6.5490 ha         1 DLW       0.128000
     40 H14         -4.8000    -0.9910    -4.7690 ha         1 DLW       0.135000
     41 H15          2.5330    -3.1830     3.3890 ha         1 DLW       0.131000
     42 H16          3.6970    -3.3350     5.5570 ha         1 DLW       0.132000
     43 H17          3.9570    -1.3250     6.9610 ha         1 DLW       0.132000
     44 H18          3.0590     0.8400     6.1930 ha         1 DLW       0.132000
     45 H19          1.9000     0.9930     4.0220 ha         1 DLW       0.131000
     46 H20          1.4150    -1.9670     1.7760 hc         1 DLW       0.075700
     47 H21         -0.5470    -1.2670     3.0160 hc         1 DLW       0.068200
     48 H22          0.0230     0.4070     3.0480 hc         1 DLW       0.068200
     49 H23         -2.3660     0.2650     1.8390 ho         1 DLW       0.422000
@<TRIPOS>BOND
     1    17    18 ar
     2    17    16 ar
     3    18    19 ar
     4    16    15 ar
     5    19    14 ar
     6    15    14 ar
     7    14    20 1
     8    20     2 1
     9    20    21 1
    10     2     4 1
    11    21    22 1
    12     4    24 2
    13     4     1 1
    14    22     1 2
    15    22    25 1
    16     1     6 1
    17     6    23 2
    18     6     9 1
    19    23     8 1
    20     5     8 ar
    21     5    11 ar
    22     8    10 ar
    23    11    12 ar
    24    10    26 1
    25    10    13 ar
    26    26     3 1
    27    12    13 ar
    28     3     7 1
    29     2    27 1
    30     2    28 1
    31     3    29 1
    32     3    30 1
    33     5    31 1
    34     7    32 1
    35     7    33 1
    36     7    34 1
    37     9    35 1
    38     9    36 1
    39     9    37 1
    40    11    38 1
    41    12    39 1
    42    13    40 1
    43    15    41 1
    44    16    42 1
    45    17    43 1
    46    18    44 1
    47    19    45 1
    48    20    46 1
    49    21    47 1
    50    21    48 1
    51    25    49 1
@<TRIPOS>SUBSTRUCTURE
     1 DLW         1 TEMP              0 ****  ****    0 ROOT
