@<TRIPOS>MOLECULE
DLZ
   41    42     1     0     0
SMALL
bcc


@<TRIPOS>ATOM
      1 C7           0.0000     0.0000     0.0000 c3         1 DLZ       0.039200
      2 C7A          1.5070     0.0000     0.0000 cc         1 DLZ      -0.250900
      3 C5A          2.1900     0.0000     1.1950 cd         1 DLZ       0.238600
      4 C6           1.4190    -0.0010     2.4900 c3         1 DLZ      -0.022400
      5 N5           3.5130    -0.0010     1.2280 nd         1 DLZ      -0.379000
      6 C4A          4.2070    -0.0000     0.1070 cc         1 DLZ       0.184800
      7 C4           5.6820    -0.0010     0.1020 c          1 DLZ       0.528000
      8 O4           6.3170    -0.0020     1.1410 o          1 DLZ      -0.630500
      9 N3           6.3010     0.0010    -1.1000 ns         1 DLZ      -0.170500
     10 C2           5.5860     0.0010    -2.2370 c          1 DLZ       0.735900
     11 O2           6.1860     0.0010    -3.2990 o          1 DLZ      -0.662500
     12 N1           4.2590     0.0010    -2.2620 nd         1 DLZ      -0.379400
     13 C8           3.5400     0.0000    -1.1470 cc         1 DLZ      -0.138600
     14 N8           2.1760    -0.0050    -1.1700 na         1 DLZ       0.475900
     15 C1'          1.4520    -0.0090    -2.4440 c3         1 DLZ      -0.111700
     16 C2'          1.1060    -1.4490    -2.8290 c3         1 DLZ       0.173100
     17 O2'          2.3080    -2.1730    -3.0950 oh         1 DLZ      -0.534800
     18 C3'          0.2240    -1.4450    -4.0790 c3         1 DLZ       0.166100
     19 O3'         -0.9790    -0.7220    -3.8110 oh         1 DLZ      -0.593800
     20 C4'         -0.1220    -2.8850    -4.4630 c3         1 DLZ       0.163100
     21 O4'          1.0810    -3.6090    -4.7310 oh         1 DLZ      -0.569800
     22 C5'         -1.0040    -2.8810    -5.7140 c3         1 DLZ       0.184400
     23 O5'         -1.4220    -4.2160    -6.0050 oh         1 DLZ      -0.597800
     24 H7          -0.3610    -0.9680    -0.3250 hc         1 DLZ       0.033367
     25 H7A         -0.3610     0.2030     1.0010 hc         1 DLZ       0.033367
     26 H7B         -0.3610     0.7650    -0.6760 hc         1 DLZ       0.033367
     27 H6           2.1110    -0.0480     3.3230 hc         1 DLZ       0.017367
     28 H6A          0.7620    -0.8620     2.5180 hc         1 DLZ       0.017367
     29 H6B          0.8300     0.9050     2.5610 hc         1 DLZ       0.017367
     30 HN3          7.3010     0.0020    -1.1430 hn         1 DLZ       0.203500
     31 H1'          0.5400     0.5670    -2.3440 h1         1 DLZ       0.074700
     32 H1'A         2.0740     0.4300    -3.2140 h1         1 DLZ       0.074700
     33 H2'          0.5730    -1.9230    -2.0130 h1         1 DLZ       0.006700
     34 HO2'         2.3210    -2.9620    -2.5790 ho         1 DLZ       0.392000
     35 H3'          0.7560    -0.9720    -4.8950 h1         1 DLZ       0.033700
     36 HO3'        -1.1790    -0.1620    -4.5430 ho         1 DLZ       0.401000
     37 H4'         -0.6540    -3.3580    -3.6470 h1         1 DLZ       0.015700
     38 HO4'         0.8830    -4.5270    -4.8170 ho         1 DLZ       0.402000
     39 H5'         -0.4410    -2.4880    -6.5510 h1         1 DLZ      -0.002300
     40 H5'A        -1.8740    -2.2600    -5.5400 h1         1 DLZ      -0.002300
     41 HO5'        -2.0120    -4.2070    -6.7410 ho         1 DLZ       0.398000
@<TRIPOS>BOND
     1     1     2 1   
     2     1    24 1   
     3     1    25 1   
     4     1    26 1   
     5     2     3 2   
     6     2    14 1   
     7     3     4 1   
     8     3     5 1   
     9     4    27 1   
    10     4    28 1   
    11     4    29 1   
    12     5     6 2   
    13     6     7 1   
    14     6    13 1   
    15     7     8 2   
    16     7     9 1   
    17     9    10 1   
    18     9    30 1   
    19    10    11 2   
    20    10    12 1   
    21    12    13 2   
    22    13    14 1   
    23    14    15 1   
    24    15    16 1   
    25    15    31 1   
    26    15    32 1   
    27    16    17 1   
    28    16    18 1   
    29    16    33 1   
    30    17    34 1   
    31    18    19 1   
    32    18    20 1   
    33    18    35 1   
    34    19    36 1   
    35    20    21 1   
    36    20    22 1   
    37    20    37 1   
    38    21    38 1   
    39    22    23 1   
    40    22    39 1   
    41    22    40 1   
    42    23    41 1   
@<TRIPOS>SUBSTRUCTURE
     1 DLZ         1 TEMP              0 ****  ****    0 ROOT
