@<TRIPOS>MOLECULE
molecule
   68    72     1     0     0
SMALL
bcc


@<TRIPOS>ATOM
      1 C1           0.0000     0.0000     0.0000 ca         1 DM1      -0.112000
      2 C2           1.3870     0.0000     0.0000 ca         1 DM1      -0.068000
      3 C3           2.0880     0.0000     1.1880 ca         1 DM1      -0.210000
      4 C4           1.4120    -0.0010     2.4050 ca         1 DM1       0.167100
      5 O4           2.1060    -0.0020     3.5700 os         1 DM1      -0.268900
      6 C5           0.0150    -0.0070     2.4190 ca         1 DM1      -0.177600
      7 C6          -0.7230    -0.0040     3.6970 c          1 DM1       0.594300
      8 O6          -0.1490     0.2460     4.7400 o          1 DM1      -0.510100
      9 C7          -2.1650    -0.3110     3.6940 ca         1 DM1      -0.167600
     10 C8          -2.8360    -0.6040     4.8780 ca         1 DM1       0.165100
     11 O8          -2.1580    -0.6070     6.0530 oh         1 DM1      -0.519100
     12 C9          -4.2050    -0.9000     4.8660 ca         1 DM1      -0.095300
     13 C10         -4.8580    -1.2150     6.1860 c3         1 DM1       0.187400
     14 O10         -4.3740    -0.3080     7.1780 os         1 DM1      -0.416600
     15 C11         -6.3750    -1.0860     6.0830 c3         1 DM1      -0.084400
     16 C12         -6.8470    -1.9000     4.8730 c3         1 DM1       0.060800
     17 O12         -8.2740    -1.9820     4.8740 oh         1 DM1      -0.588800
     18 C13         -6.2600    -3.2850     4.9300 c          1 DM1       0.535100
     19 O13         -5.2350    -3.5320     4.3400 o          1 DM1      -0.505100
     20 C14         -6.9480    -4.3630     5.7270 c3         1 DM1      -0.184100
     21 C15         -6.3740    -1.1920     3.6040 c3         1 DM1      -0.060100
     22 C16         -4.9000    -0.8950     3.6820 ca         1 DM1      -0.037300
     23 C17         -4.2400    -0.6010     2.4810 ca         1 DM1       0.147100
     24 O17         -4.9310    -0.5990     1.3150 oh         1 DM1      -0.497100
     25 C18         -2.8770    -0.3100     2.4770 ca         1 DM1      -0.127600
     26 C19         -2.1730    -0.0020     1.2190 c          1 DM1       0.588300
     27 O19         -2.8000     0.2470     0.2070 o          1 DM1      -0.489100
     28 C20         -0.6930    -0.0010     1.2030 ca         1 DM1      -0.096600
     29 C21          3.4920    -0.0020     3.2250 c3         1 DM1       0.096700
     30 C1'         -3.9140    -1.1000     8.2740 c3         1 DM1       0.327900
     31 C2'         -3.1070    -0.2220     9.2330 c3         1 DM1      -0.114400
     32 C3'         -3.9950     0.9240     9.7290 c3         1 DM1       0.089500
     33 N3'         -3.2820     1.6850    10.7650 nz         1 DM1      -0.808600
     34 C4'         -5.2800     0.3300    10.3150 c3         1 DM1       0.095100
     35 O4'         -4.9690    -0.4190    11.4900 oh         1 DM1      -0.590800
     36 C5'         -5.9240    -0.5890     9.2740 c3         1 DM1       0.127100
     37 O5'         -5.0360    -1.6560     8.9590 os         1 DM1      -0.386600
     38 C6'         -7.2260    -1.1620     9.8380 c3         1 DM1      -0.089100
     39 H1          -0.5420    -0.0000    -0.9380 ha         1 DM1       0.162000
     40 H2           1.9240     0.0010    -0.9410 ha         1 DM1       0.148000
     41 H3           3.1710     0.0000     1.1730 ha         1 DM1       0.155000
     42 HO8         -1.5000    -1.2810     6.0350 ho         1 DM1       0.435000
     43 H10         -4.6070    -2.2290     6.4720 h1         1 DM1       0.074700
     44 H111        -6.8350    -1.4730     6.9840 hc         1 DM1       0.070200
     45 H112        -6.6430    -0.0450     5.9480 hc         1 DM1       0.070200
     46 HO12        -8.5790    -2.1630     4.0010 ho         1 DM1       0.420000
     47 H141        -7.2300    -3.9720     6.6970 hc         1 DM1       0.068367
     48 H142        -6.2750    -5.2020     5.8570 hc         1 DM1       0.068367
     49 H143        -7.8350    -4.6920     5.1980 hc         1 DM1       0.068367
     50 H151        -6.5640    -1.8290     2.7490 hc         1 DM1       0.081200
     51 H152        -6.9190    -0.2620     3.4920 hc         1 DM1       0.081200
     52 HO17        -5.2610     0.2680     1.1460 ho         1 DM1       0.437000
     53 H211         3.7190    -0.8860     2.6420 h1         1 DM1       0.050033
     54 H212         3.7190     0.8830     2.6430 h1         1 DM1       0.050033
     55 H213         4.0890    -0.0020     4.1290 h1         1 DM1       0.050033
     56 H1'         -3.2850    -1.9020     7.9070 h2         1 DM1       0.111700
     57 H2'1        -2.7780    -0.8160    10.0770 hc         1 DM1       0.090200
     58 H2'2        -2.2480     0.1860     8.7130 hc         1 DM1       0.090200
     59 H3'         -4.2430     1.5750     8.8990 hx         1 DM1       0.135700
     60 HN'1        -3.9310     2.2670    11.2560 hn         1 DM1       0.454800
     61 HN'2        -2.8500     1.0510    11.4070 hn         1 DM1       0.454800
     62 H4'         -5.9670     1.1300    10.5620 h1         1 DM1       0.055700
     63 HO4'        -5.4350    -0.0580    12.2260 ho         1 DM1       0.420000
     64 H5'         -6.1340    -0.0210     8.3760 h1         1 DM1       0.079700
     65 H6'1        -6.9980    -1.9450    10.5510 hc         1 DM1       0.061367
     66 H6'2        -7.8210    -1.5710     9.0300 hc         1 DM1       0.061367
     67 H6'3        -7.7820    -0.3740    10.3320 hc         1 DM1       0.061367
     68 H3'3        -2.5690     2.2420    10.3370 hn         1 DM1       0.454800
@<TRIPOS>BOND
     1     1     2 ar
     2     1    28 ar
     3     1    39 1
     4     2     3 ar
     5     2    40 1
     6     3     4 ar
     7     3    41 1
     8     4     5 1
     9     4     6 ar
    10     5    29 1
    11     6     7 1
    12     6    28 ar
    13     7     8 2
    14     7     9 1
    15     9    10 ar
    16     9    25 ar
    17    10    11 1
    18    10    12 ar
    19    11    42 1
    20    12    13 1
    21    12    22 ar
    22    13    14 1
    23    13    15 1
    24    13    43 1
    25    14    30 1
    26    15    16 1
    27    15    44 1
    28    15    45 1
    29    16    17 1
    30    16    18 1
    31    16    21 1
    32    17    46 1
    33    18    19 2
    34    18    20 1
    35    20    47 1
    36    20    48 1
    37    20    49 1
    38    21    22 1
    39    21    50 1
    40    21    51 1
    41    22    23 ar
    42    23    24 1
    43    23    25 ar
    44    24    52 1
    45    25    26 1
    46    26    27 2
    47    26    28 1
    48    29    53 1
    49    29    54 1
    50    29    55 1
    51    30    31 1
    52    30    37 1
    53    30    56 1
    54    31    32 1
    55    31    57 1
    56    31    58 1
    57    32    33 1
    58    32    34 1
    59    32    59 1
    60    33    60 1
    61    33    61 1
    62    34    35 1
    63    34    36 1
    64    34    62 1
    65    35    63 1
    66    36    37 1
    67    36    38 1
    68    36    64 1
    69    38    65 1
    70    38    66 1
    71    38    67 1
    72    68    33 1
@<TRIPOS>SUBSTRUCTURE
     1 DM1         1 TEMP              0 ****  ****    0 ROOT
