@<TRIPOS>MOLECULE
DM2
   69    73     1     0     0
SMALL
bcc


@<TRIPOS>ATOM
      1 C1           0.0000     0.0000     0.0000 ca         1 DM2      -0.087000
      2 C2           1.3840     0.0000     0.0000 ca         1 DM2      -0.031000
      3 C3           2.0860     0.0000     1.1880 ca         1 DM2      -0.209000
      4 C4           1.4100    -0.0000     2.4050 ca         1 DM2       0.187100
      5 O4           2.1030    -0.0010     3.5700 os         1 DM2      -0.253900
      6 C5           0.0140    -0.0060     2.4190 ca         1 DM2      -0.196600
      7 C6          -0.7250    -0.0010     3.6970 c          1 DM2       0.658300
      8 O6          -0.1510     0.2490     4.7400 o          1 DM2      -0.552100
      9 C7          -2.1680    -0.3090     3.6940 ca         1 DM2      -0.178600
     10 C8          -2.8380    -0.6020     4.8780 ca         1 DM2       0.185100
     11 O8          -2.1600    -0.6030     6.0520 oh         1 DM2      -0.503100
     12 C9          -4.2070    -0.8970     4.8650 ca         1 DM2      -0.116300
     13 C10         -4.8600    -1.2120     6.1860 c3         1 DM2       0.235400
     14 O10         -4.3760    -0.3030     7.1770 os         1 DM2      -0.407600
     15 C11         -6.3780    -1.0810     6.0820 c3         1 DM2      -0.057400
     16 C12         -6.8500    -1.8960     4.8720 c3         1 DM2       0.083800
     17 O12         -8.2770    -1.9770     4.8740 oh         1 DM2      -0.580800
     18 C13         -6.2620    -3.2810     4.9300 c          1 DM2       0.558100
     19 O13         -5.2380    -3.5280     4.3400 o          1 DM2      -0.505100
     20 C14         -6.9510    -4.3590     5.7270 c3         1 DM2       0.139400
     21 O14         -6.2060    -5.5750     5.6290 oh         1 DM2      -0.567800
     22 C15         -6.3760    -1.1890     3.6040 c3         1 DM2       0.003900
     23 C16         -4.9020    -0.8910     3.6820 ca         1 DM2      -0.046300
     24 C17         -4.2410    -0.5990     2.4810 ca         1 DM2       0.168100
     25 O17         -4.9330    -0.5970     1.3140 oh         1 DM2      -0.479100
     26 C18         -2.8800    -0.3080     2.4770 ca         1 DM2      -0.141600
     27 C19         -2.1740    -0.0010     1.2190 c          1 DM2       0.644300
     28 O19         -2.8010     0.2470     0.2070 o          1 DM2      -0.529100
     29 C20         -0.6960    -0.0000     1.2030 ca         1 DM2      -0.098600
     30 C21          3.4900    -0.0010     3.2250 c3         1 DM2       0.206700
     31 C1'         -3.9180    -1.0950     8.2740 c3         1 DM2       0.380900
     32 C2'         -3.1100    -0.2170     9.2320 c3         1 DM2      -0.059400
     33 C3'         -3.9970     0.9290     9.7270 c3         1 DM2      -0.094500
     34 N3'         -3.2850     1.6910    10.7630 nz         1 DM2       0.079400
     35 C4'         -5.2840     0.3360    10.3130 c3         1 DM2       0.150100
     36 O4'         -4.9720    -0.4120    11.4900 oh         1 DM2      -0.575800
     37 C5'         -5.9280    -0.5830     9.2730 c3         1 DM2       0.142100
     38 O5'         -5.0380    -1.6510     8.9590 os         1 DM2      -0.375600
     39 C6'         -7.2300    -1.1560     9.8360 c3         1 DM2       0.004900
     40 H1          -0.5410    -0.0000    -0.9380 ha         1 DM2       0.131000
     41 H2           1.9210     0.0000    -0.9410 ha         1 DM2       0.111000
     42 H3           3.1690     0.0000     1.1730 ha         1 DM2       0.141000
     43 HO8         -1.5300    -1.3040     6.0510 ho         1 DM2       0.418000
     44 H10         -4.6100    -2.2260     6.4720 h1         1 DM2       0.046700
     45 H111        -6.6450    -0.0400     5.9460 hc         1 DM2       0.040200
     46 H112        -6.8390    -1.4670     6.9830 hc         1 DM2       0.040200
     47 HO12        -8.5950    -1.9430     3.9870 ho         1 DM2       0.411000
     48 H141        -7.9490    -4.5150     5.3360 h1         1 DM2       0.013200
     49 H142        -7.0140    -4.0570     6.7650 h1         1 DM2       0.013200
     50 HO14        -6.7550    -6.3010     5.8730 ho         1 DM2       0.397000
     51 H151        -6.9210    -0.2600     3.4900 hc         1 DM2       0.046700
     52 H152        -6.5650    -1.8270     2.7490 hc         1 DM2       0.046700
     53 HO17        -5.2470     0.2740     1.1360 ho         1 DM2       0.418000
     54 H211         3.7170    -0.8860     2.6420 h1         1 DM2       0.007367
     55 H212         3.7180     0.8840     2.6430 h1         1 DM2       0.007367
     56 H213         4.0870    -0.0020     4.1300 h1         1 DM2       0.007367
     57 H1'         -3.2890    -1.8970     7.9070 h2         1 DM2       0.062700
     58 H2'1        -2.2510     0.1900     8.7120 hc         1 DM2       0.057700
     59 H2'2        -2.7820    -0.8110    10.0770 hc         1 DM2       0.057700
     60 H3'         -4.2440     1.5790     8.8970 hx         1 DM2       0.110700
     61 HN'1        -3.9230     2.3180    11.2130 hn         1 DM2       0.224467
     62 HN'2        -2.5440     2.2150    10.3410 hn         1 DM2       0.224467
     63 H4'         -5.9700     1.1380    10.5590 h1         1 DM2       0.022700
     64 HO4'        -5.5030    -0.1070    12.2070 ho         1 DM2       0.412000
     65 H5'         -6.1380    -0.0160     8.3740 h1         1 DM2       0.056700
     66 H6'1        -7.0270    -2.1010    10.3260 hc         1 DM2       0.022700
     67 H6'2        -7.6490    -0.4600    10.5540 hc         1 DM2       0.022700
     68 H6'3        -7.9350    -1.3110     9.0290 hc         1 DM2       0.022700
     69 H3'3        -2.9160     1.0610    11.4470 hn         1 DM2       0.224467
@<TRIPOS>BOND
     1     1     2 ar  
     2     1    29 ar  
     3     1    40 1   
     4     2     3 ar  
     5     2    41 1   
     6     3     4 ar  
     7     3    42 1   
     8     4     5 1   
     9     4     6 ar  
    10     5    30 1   
    11     6     7 1   
    12     6    29 ar  
    13     7     8 2   
    14     7     9 1   
    15     9    10 ar  
    16     9    26 ar  
    17    10    11 1   
    18    10    12 ar  
    19    11    43 1   
    20    12    13 1   
    21    12    23 ar  
    22    13    14 1   
    23    13    15 1   
    24    13    44 1   
    25    14    31 1   
    26    15    16 1   
    27    15    45 1   
    28    15    46 1   
    29    16    17 1   
    30    16    18 1   
    31    16    22 1   
    32    17    47 1   
    33    18    19 2   
    34    18    20 1   
    35    20    21 1   
    36    20    48 1   
    37    20    49 1   
    38    21    50 1   
    39    22    23 1   
    40    22    51 1   
    41    22    52 1   
    42    23    24 ar  
    43    24    25 1   
    44    24    26 ar  
    45    25    53 1   
    46    26    27 1   
    47    27    28 2   
    48    27    29 1   
    49    30    54 1   
    50    30    55 1   
    51    30    56 1   
    52    31    32 1   
    53    31    38 1   
    54    31    57 1   
    55    32    33 1   
    56    32    58 1   
    57    32    59 1   
    58    33    34 1   
    59    33    35 1   
    60    33    60 1   
    61    34    61 1   
    62    34    62 1   
    63    34    69 1   
    64    35    36 1   
    65    35    37 1   
    66    35    63 1   
    67    36    64 1   
    68    37    38 1   
    69    37    39 1   
    70    37    65 1   
    71    39    66 1   
    72    39    67 1   
    73    39    68 1   
@<TRIPOS>SUBSTRUCTURE
     1 DM2         1 TEMP              0 ****  ****    0 ROOT
