@<TRIPOS>MOLECULE
molecule
   67    71     1     0     0
SMALL
bcc


@<TRIPOS>ATOM
      1 C1           0.0000     0.0000     0.0000 ca         1 DM3      -0.112000
      2 C2           1.3860     0.0000     0.0000 ca         1 DM3      -0.069000
      3 C3           2.0870     0.0000     1.1860 ca         1 DM3      -0.208000
      4 C4           1.4120     0.0020     2.4040 ca         1 DM3       0.166100
      5 O4           2.1070     0.0030     3.5680 os         1 DM3      -0.267900
      6 C5           0.0160    -0.0050     2.4200 ca         1 DM3      -0.175600
      7 C6          -0.7210     0.0020     3.6980 c          1 DM3       0.593300
      8 O6          -0.1460     0.2540     4.7400 o          1 DM3      -0.509100
      9 C7          -2.1640    -0.3040     3.6990 ca         1 DM3      -0.178600
     10 C8          -2.8330    -0.5940     4.8860 ca         1 DM3       0.173100
     11 O8          -2.1550    -0.5950     6.0590 oh         1 DM3      -0.519100
     12 C9          -4.2010    -0.8860     4.8710 ca         1 DM3      -0.108300
     13 C10         -4.8570    -1.1990     6.1910 c3         1 DM3       0.187400
     14 O10         -4.3760    -0.2920     7.1830 os         1 DM3      -0.415600
     15 C11         -6.3740    -1.0680     6.0830 c3         1 DM3      -0.084400
     16 C12         -6.8450    -1.8840     4.8720 c3         1 DM3       0.060800
     17 O12         -8.2710    -1.9650     4.8710 oh         1 DM3      -0.587800
     18 C13         -6.2570    -3.2690     4.9330 c          1 DM3       0.539100
     19 O13         -5.2320    -3.5170     4.3440 o          1 DM3      -0.511100
     20 C14         -6.9480    -4.3460     5.7300 c3         1 DM3      -0.188100
     21 C15         -6.3680    -1.1780     3.6040 c3         1 DM3      -0.062100
     22 C16         -4.8930    -0.8830     3.6830 ca         1 DM3      -0.010300
     23 C17         -4.2340    -0.5920     2.4910 ca         1 DM3      -0.090000
     24 C18         -2.8780    -0.3050     2.4850 ca         1 DM3      -0.096600
     25 C19         -2.1730     0.0000     1.2210 c          1 DM3       0.587300
     26 O19         -2.8010     0.2480     0.2110 o          1 DM3      -0.497100
     27 C20         -0.6940     0.0010     1.2040 ca         1 DM3      -0.099600
     28 C21          3.4940     0.0020     3.2220 c3         1 DM3       0.096700
     29 C1'         -3.9180    -1.0820     8.2810 c3         1 DM3       0.326900
     30 C2'         -3.1120    -0.2040     9.2400 c3         1 DM3      -0.113400
     31 C3'         -4.0010     0.9420     9.7340 c3         1 DM3       0.087500
     32 N3'         -3.2920     1.7050    10.7700 nz         1 DM3      -0.808600
     33 C4'         -5.2880     0.3480    10.3170 c3         1 DM3       0.095100
     34 O4'         -4.9790    -0.4000    11.4940 oh         1 DM3      -0.589800
     35 C5'         -5.9300    -0.5720     9.2760 c3         1 DM3       0.128100
     36 O5'         -5.0400    -1.6390     8.9640 os         1 DM3      -0.387600
     37 C6'         -7.2330    -1.1450     9.8370 c3         1 DM3      -0.090100
     38 H1          -0.5420    -0.0000    -0.9380 ha         1 DM3       0.161000
     39 H2           1.9220    -0.0010    -0.9410 ha         1 DM3       0.147000
     40 H3           3.1700    -0.0000     1.1700 ha         1 DM3       0.155000
     41 HO8         -1.5250    -1.2970     6.0580 ho         1 DM3       0.434000
     42 H10         -4.6090    -2.2130     6.4790 h1         1 DM3       0.071700
     43 H111        -6.8380    -1.4530     6.9840 hc         1 DM3       0.070700
     44 H112        -6.6410    -0.0270     5.9460 hc         1 DM3       0.070700
     45 HO12        -8.5780    -2.1000     3.9900 ho         1 DM3       0.420000
     46 H141        -6.2190    -4.8710     6.3350 hc         1 DM3       0.069700
     47 H142        -7.6950    -3.8970     6.3730 hc         1 DM3       0.069700
     48 H143        -7.4260    -5.0450     5.0540 hc         1 DM3       0.069700
     49 H151        -6.5580    -1.8160     2.7500 hc         1 DM3       0.076200
     50 H152        -6.9120    -0.2480     3.4900 hc         1 DM3       0.076200
     51 H17         -4.7870    -0.5900     1.5600 ha         1 DM3       0.164000
     52 H211         3.7210     0.8860     2.6380 h1         1 DM3       0.050033
     53 H212         3.7200    -0.8830     2.6400 h1         1 DM3       0.050033
     54 H213         4.0910     0.0030     4.1250 h1         1 DM3       0.050033
     55 H1'         -3.2880    -1.8840     7.9150 h2         1 DM3       0.110700
     56 H2'1        -2.7850    -0.7970    10.0850 hc         1 DM3       0.089700
     57 H2'2        -2.2530     0.2040     8.7220 hc         1 DM3       0.089700
     58 H3'         -4.2480     1.5910     8.9030 hx         1 DM3       0.135700
     59 HN'1        -3.9240     2.3500    11.2010 hn         1 DM3       0.454800
     60 HN'2        -2.9340     1.0760    11.4610 hn         1 DM3       0.454800
     61 H4'         -5.9750     1.1490    10.5620 h1         1 DM3       0.056700
     62 HO4'        -5.4210    -0.0190    12.2340 ho         1 DM3       0.418000
     63 H5'         -6.1390    -0.0050     8.3770 h1         1 DM3       0.080700
     64 H6'1        -8.0050    -0.3870     9.8020 hc         1 DM3       0.061700
     65 H6'2        -7.5380    -1.9980     9.2430 hc         1 DM3       0.061700
     66 H6'3        -7.0780    -1.4570    10.8630 hc         1 DM3       0.061700
     67 H3'3        -2.5420     2.2180    10.3510 hn         1 DM3       0.454800
@<TRIPOS>BOND
     1     1     2 ar
     2     1    27 ar
     3     1    38 1
     4     2     3 ar
     5     2    39 1
     6     3     4 ar
     7     3    40 1
     8     4     5 1
     9     4     6 ar
    10     5    28 1
    11     6     7 1
    12     6    27 ar
    13     7     8 2
    14     7     9 1
    15     9    10 ar
    16     9    24 ar
    17    10    11 1
    18    10    12 ar
    19    11    41 1
    20    12    13 1
    21    12    22 ar
    22    13    14 1
    23    13    15 1
    24    13    42 1
    25    14    29 1
    26    15    16 1
    27    15    43 1
    28    15    44 1
    29    16    17 1
    30    16    18 1
    31    16    21 1
    32    17    45 1
    33    18    19 2
    34    18    20 1
    35    20    46 1
    36    20    47 1
    37    20    48 1
    38    21    22 1
    39    21    49 1
    40    21    50 1
    41    22    23 ar
    42    23    24 ar
    43    23    51 1
    44    24    25 1
    45    25    26 2
    46    25    27 1
    47    28    52 1
    48    28    53 1
    49    28    54 1
    50    29    30 1
    51    29    36 1
    52    29    55 1
    53    30    31 1
    54    30    56 1
    55    30    57 1
    56    31    32 1
    57    31    33 1
    58    31    58 1
    59    32    59 1
    60    32    60 1
    61    33    34 1
    62    33    35 1
    63    33    61 1
    64    34    62 1
    65    35    36 1
    66    35    37 1
    67    35    63 1
    68    37    64 1
    69    37    65 1
    70    37    66 1
    71    67    32 1
@<TRIPOS>SUBSTRUCTURE
     1 DM3         1 TEMP              0 ****  ****    0 ROOT
