@<TRIPOS>MOLECULE
molecule
   65    69     1     0     0
SMALL
bcc


@<TRIPOS>ATOM
      1 C1           0.0000     0.0000     0.0000 ca         1 DM4      -0.108000
      2 C2           1.3860     0.0000     0.0000 ca         1 DM4      -0.089000
      3 C3           2.0880     0.0000     1.1880 ca         1 DM4      -0.205000
      4 C4           1.4120    -0.0000     2.4050 ca         1 DM4       0.187100
      5 O4           2.1080    -0.0010     3.5700 oh         1 DM4      -0.479100
      6 C5           0.0160     0.0010     2.4210 ca         1 DM4      -0.170600
      7 C6          -0.7210     0.0020     3.6980 c          1 DM4       0.593300
      8 O6          -0.1470    -0.2480     4.7410 o          1 DM4      -0.505100
      9 C7          -2.1650     0.3110     3.6990 ca         1 DM4      -0.191600
     10 C8          -2.8340     0.6000     4.8860 ca         1 DM4       0.184100
     11 O8          -2.1570     0.6000     6.0600 oh         1 DM4      -0.503100
     12 C9          -4.2040     0.8940     4.8690 ca         1 DM4      -0.104300
     13 C10         -4.8630     1.1930     6.1910 c3         1 DM4       0.191400
     14 O10         -4.0060     2.0340     6.9660 os         1 DM4      -0.430600
     15 C11         -6.2010     1.8980     5.9760 c3         1 DM4      -0.105400
     16 C12         -7.0210     1.0810     4.9720 c3         1 DM4       0.064800
     17 O12         -8.3560     1.5860     4.9160 oh         1 DM4      -0.593800
     18 C13         -7.0420    -0.3660     5.3900 c          1 DM4       0.542100
     19 O13         -6.2200    -1.1340     4.9520 o          1 DM4      -0.468100
     20 C14         -8.0900    -0.8550     6.3570 c3         1 DM4       0.051400
     21 O14         -7.9030    -2.2520     6.5970 oh         1 DM4      -0.586800
     22 C15         -6.3650     1.2100     3.5980 c3         1 DM4      -0.062100
     23 C16         -4.8930     0.8960     3.6800 ca         1 DM4      -0.010300
     24 C17         -4.2330     0.6020     2.4880 ca         1 DM4      -0.094000
     25 C18         -2.8790     0.3100     2.4840 ca         1 DM4      -0.092600
     26 C19         -2.1730     0.0000     1.2210 c          1 DM4       0.585300
     27 O19         -2.8010    -0.2510     0.2120 o          1 DM4      -0.491100
     28 C20         -0.6940    -0.0000     1.2040 ca         1 DM4      -0.091600
     29 C1'         -4.1300     1.6100     8.3240 c3         1 DM4       0.323900
     30 C2'         -2.9920     2.2130     9.1500 c3         1 DM4      -0.114400
     31 C3'         -3.0590     3.7420     9.0510 c3         1 DM4       0.090500
     32 N3'         -2.0690     4.3390     9.9570 nz         1 DM4      -0.808600
     33 C4'         -4.4670     4.1960     9.4510 c3         1 DM4       0.096100
     34 O4'         -4.6870     3.9130    10.8340 oh         1 DM4      -0.594800
     35 C5'         -5.4940     3.4440     8.6010 c3         1 DM4       0.123100
     36 O5'         -5.3860     2.0420     8.8440 os         1 DM4      -0.383600
     37 C6'         -6.9020     3.9160     8.9670 c3         1 DM4      -0.089100
     38 H1          -0.3930     0.0510    -1.0080 ha         1 DM4       0.161000
     39 H2           1.9230     0.0080    -0.9410 ha         1 DM4       0.147000
     40 H3           3.1600     0.0690     1.0470 ha         1 DM4       0.149000
     41 HO4          2.9420    -0.4200     3.4380 ho         1 DM4       0.432000
     42 HO8         -1.4260     1.1930     6.0010 ho         1 DM4       0.430000
     43 H10         -5.0330     0.2640     6.7210 h1         1 DM4       0.082700
     44 H111        -6.7350     1.9590     6.9170 hc         1 DM4       0.070200
     45 H112        -6.0300     2.8930     5.5830 hc         1 DM4       0.070200
     46 HO12        -8.6140     1.6960     4.0160 ho         1 DM4       0.421000
     47 H141        -9.0740    -0.6900     5.9370 h1         1 DM4       0.052700
     48 H142        -8.0000    -0.3130     7.2910 h1         1 DM4       0.052700
     49 HO14        -8.6260    -2.5830     7.1030 ho         1 DM4       0.412000
     50 H151        -6.4930     2.2230     3.2360 hc         1 DM4       0.076200
     51 H152        -6.8380     0.5180     2.9120 hc         1 DM4       0.076200
     52 H17         -4.7830     0.6090     1.5550 ha         1 DM4       0.164000
     53 H1'         -4.0740     0.5290     8.3740 h2         1 DM4       0.122700
     54 H2'1        -3.0980     1.9130    10.1860 hc         1 DM4       0.088200
     55 H2'2        -2.0410     1.8680     8.7620 hc         1 DM4       0.088200
     56 H3'         -2.8560     4.0480     8.0320 hx         1 DM4       0.130700
     57 HN'1        -2.1990     5.3310     9.9860 hn         1 DM4       0.455467
     58 HN'2        -2.1870     3.9600    10.8760 hn         1 DM4       0.455467
     59 H4'         -4.5650     5.2610     9.2740 h1         1 DM4       0.055700
     60 HO4'        -4.9800     4.6950    11.2720 ho         1 DM4       0.425000
     61 H5'         -5.3040     3.6410     7.5530 h1         1 DM4       0.079700
     62 H6'1        -7.5240     3.9210     8.0800 hc         1 DM4       0.061033
     63 H6'2        -6.8520     4.9170     9.3780 hc         1 DM4       0.061033
     64 H6'3        -7.3290     3.2450     9.7030 hc         1 DM4       0.061033
     65 H3'3        -1.1480     4.1510     9.6150 hn         1 DM4       0.455467
@<TRIPOS>BOND
     1     1     2 ar
     2     1    28 ar
     3     1    38 1
     4     2     3 ar
     5     2    39 1
     6     3     4 ar
     7     3    40 1
     8     4     5 1
     9     4     6 ar
    10     5    41 1
    11     6     7 1
    12     6    28 ar
    13     7     8 2
    14     7     9 1
    15     9    10 ar
    16     9    25 ar
    17    10    11 1
    18    10    12 ar
    19    11    42 1
    20    12    13 1
    21    12    23 ar
    22    13    14 1
    23    13    15 1
    24    13    43 1
    25    14    29 1
    26    15    16 1
    27    15    44 1
    28    15    45 1
    29    16    17 1
    30    16    18 1
    31    16    22 1
    32    17    46 1
    33    18    19 2
    34    18    20 1
    35    20    21 1
    36    20    47 1
    37    20    48 1
    38    21    49 1
    39    22    23 1
    40    22    50 1
    41    22    51 1
    42    23    24 ar
    43    24    25 ar
    44    24    52 1
    45    25    26 1
    46    26    27 2
    47    26    28 1
    48    29    30 1
    49    29    36 1
    50    29    53 1
    51    30    31 1
    52    30    54 1
    53    30    55 1
    54    31    32 1
    55    31    33 1
    56    31    56 1
    57    32    57 1
    58    32    58 1
    59    33    34 1
    60    33    35 1
    61    33    59 1
    62    34    60 1
    63    35    36 1
    64    35    37 1
    65    35    61 1
    66    37    62 1
    67    37    63 1
    68    37    64 1
    69    65    32 1
@<TRIPOS>SUBSTRUCTURE
     1 DM4         1 TEMP              0 ****  ****    0 ROOT
