@<TRIPOS>MOLECULE
DM5
   64    68     1     0     0
SMALL
bcc


@<TRIPOS>ATOM
      1 C1           0.0000     0.0000     0.0000 ca         1 DM5      -0.048000
      2 C2           1.3840     0.0000     0.0000 ca         1 DM5      -0.077000
      3 C3           2.0850     0.0000     1.1920 ca         1 DM5      -0.086000
      4 C4           1.4130     0.0010     2.4010 ca         1 DM5      -0.050000
      5 C5           0.0210     0.0020     2.4190 ca         1 DM5      -0.151600
      6 C6          -0.7150     0.0050     3.7020 c          1 DM5       0.659300
      7 O6          -0.1380    -0.2440     4.7440 o          1 DM5      -0.565100
      8 C7          -2.1570     0.3140     3.7030 ca         1 DM5      -0.195600
      9 C8          -2.8250     0.6050     4.8890 ca         1 DM5       0.191100
     10 O8          -2.1450     0.6030     6.0620 oh         1 DM5      -0.493100
     11 C9          -4.1950     0.8980     4.8780 ca         1 DM5      -0.120300
     12 C10         -4.8480     1.1970     6.2040 c3         1 DM5       0.241400
     13 O10         -3.9860     2.0350     6.9750 os         1 DM5      -0.423600
     14 C11         -6.1850     1.9030     5.9980 c3         1 DM5      -0.059400
     15 C12         -7.0120     1.0880     4.9960 c3         1 DM5       0.081800
     16 O12         -8.3460     1.5950     4.9460 oh         1 DM5      -0.575800
     17 C13         -7.0330    -0.3590     5.4150 c          1 DM5       0.576100
     18 O13         -6.2420    -1.1370     4.9380 o          1 DM5      -0.533100
     19 C14         -8.0440    -0.8360     6.4260 c3         1 DM5      -0.086100
     20 C15         -6.3610     1.2160     3.6210 c3         1 DM5       0.001900
     21 C16         -4.8890     0.9010     3.6970 ca         1 DM5      -0.034300
     22 C17         -4.2310     0.6060     2.4940 ca         1 DM5       0.162100
     23 O17         -4.9260     0.6090     1.3290 oh         1 DM5      -0.470100
     24 C18         -2.8720     0.3130     2.4870 ca         1 DM5      -0.135600
     25 C19         -2.1710     0.0020     1.2280 c          1 DM5       0.633300
     26 O19         -2.8000    -0.2500     0.2190 o          1 DM5      -0.514100
     27 C20         -0.6910     0.0010     1.2070 ca         1 DM5      -0.135600
     28 C1'         -3.8840     1.4410     8.2710 c3         1 DM5       0.378900
     29 C2'         -2.7200     2.0830     9.0320 c3         1 DM5      -0.057400
     30 C3'         -2.9690     3.5900     9.1450 c3         1 DM5      -0.097500
     31 N3'         -1.9400     4.1960    10.0020 nz         1 DM5       0.079400
     32 C4'         -4.3540     3.8130     9.7620 c3         1 DM5       0.151100
     33 O4'         -4.3570     3.3450    11.1110 oh         1 DM5      -0.573800
     34 C5'         -5.3930     3.0420     8.9450 c3         1 DM5       0.142100
     35 O5'         -5.1000     1.6480     8.9860 os         1 DM5      -0.370600
     36 C6'         -6.7840     3.2870     9.5320 c3         1 DM5       0.000900
     37 H1          -0.5430     0.0000    -0.9370 ha         1 DM5       0.128000
     38 H2           1.9220    -0.0000    -0.9400 ha         1 DM5       0.113000
     39 H3           3.1680    -0.0000     1.1780 ha         1 DM5       0.112000
     40 H4           1.9680     0.0010     3.3310 ha         1 DM5       0.121000
     41 HO8         -1.4250     1.2110     6.0090 ho         1 DM5       0.410000
     42 H10         -5.0150     0.2670     6.7330 h1         1 DM5       0.049700
     43 H111        -6.7140     1.9620     6.9420 hc         1 DM5       0.040200
     44 H112        -6.0150     2.8980     5.6050 hc         1 DM5       0.040200
     45 HO12        -8.6720     1.5380     4.0630 ho         1 DM5       0.410000
     46 H141        -8.6080     0.0110     6.8000 hc         1 DM5       0.033033
     47 H142        -8.7190    -1.5410     5.9570 hc         1 DM5       0.033033
     48 H143        -7.5310    -1.3190     7.2490 hc         1 DM5       0.033033
     49 H151        -6.4890     2.2290     3.2590 hc         1 DM5       0.047200
     50 H152        -6.8370     0.5240     2.9360 hc         1 DM5       0.047200
     51 HO17        -4.8270     1.4450     0.9060 ho         1 DM5       0.410000
     52 H1'         -3.7030     0.3780     8.1710 h2         1 DM5       0.075700
     53 H2'1        -1.7970     1.9080     8.4930 hc         1 DM5       0.054200
     54 H2'2        -2.6560     1.6520    10.0230 hc         1 DM5       0.054200
     55 H3'         -2.9360     4.0370     8.1580 hx         1 DM5       0.105700
     56 HN'1        -1.2390     4.6240     9.4300 hn         1 DM5       0.224133
     57 HN'2        -1.5210     3.4870    10.5710 hn         1 DM5       0.224133
     58 H4'         -4.5910     4.8700     9.7410 h1         1 DM5       0.022700
     59 HO4'        -4.6540     4.0340    11.6820 ho         1 DM5       0.413000
     60 H5'         -5.3660     3.3840     7.9180 h1         1 DM5       0.054700
     61 H6'1        -6.8410     2.8470    10.5200 hc         1 DM5       0.024700
     62 H6'2        -7.5310     2.8340     8.8910 hc         1 DM5       0.024700
     63 H6'3        -6.9640     4.3530     9.6000 hc         1 DM5       0.024700
     64 H3'3        -2.3570     4.9040    10.5740 hn         1 DM5       0.224133
@<TRIPOS>BOND
     1     1     2 ar  
     2     1    27 ar  
     3     1    37 1   
     4     2     3 ar  
     5     2    38 1   
     6     3     4 ar  
     7     3    39 1   
     8     4     5 ar  
     9     4    40 1   
    10     5     6 1   
    11     5    27 ar  
    12     6     7 2   
    13     6     8 1   
    14     8     9 ar  
    15     8    24 ar  
    16     9    10 1   
    17     9    11 ar  
    18    10    41 1   
    19    11    12 1   
    20    11    21 ar  
    21    12    13 1   
    22    12    14 1   
    23    12    42 1   
    24    13    28 1   
    25    14    15 1   
    26    14    43 1   
    27    14    44 1   
    28    15    16 1   
    29    15    17 1   
    30    15    20 1   
    31    16    45 1   
    32    17    18 2   
    33    17    19 1   
    34    19    46 1   
    35    19    47 1   
    36    19    48 1   
    37    20    21 1   
    38    20    49 1   
    39    20    50 1   
    40    21    22 ar  
    41    22    23 1   
    42    22    24 ar  
    43    23    51 1   
    44    24    25 1   
    45    25    26 2   
    46    25    27 1   
    47    28    29 1   
    48    28    35 1   
    49    28    52 1   
    50    29    30 1   
    51    29    53 1   
    52    29    54 1   
    53    30    31 1   
    54    30    32 1   
    55    30    55 1   
    56    31    56 1   
    57    31    57 1   
    58    31    64 1   
    59    32    33 1   
    60    32    34 1   
    61    32    58 1   
    62    33    59 1   
    63    34    35 1   
    64    34    36 1   
    65    34    60 1   
    66    36    61 1   
    67    36    62 1   
    68    36    63 1   
@<TRIPOS>SUBSTRUCTURE
     1 DM5         1 TEMP              0 ****  ****    0 ROOT
