@<TRIPOS>MOLECULE
molecule
   23    22     1     0     0
SMALL
bcc


@<TRIPOS>ATOM
      1 C1           0.0000     0.0000     0.0000 c3         1 DMA       0.179600
      2 O1           1.4290     0.0000     0.0000 os         1 DMA      -0.550200
      3 C2          -0.5010     0.0000     1.4210 c2         1 DMA      -0.097200
      4 C3          -1.4840     0.7930     1.7680 c2         1 DMA      -0.234400
      5 C4          -1.9000     0.8910     3.2130 c3         1 DMA      -0.032900
      6 C5          -2.1980     1.6100     0.7230 c3         1 DMA      -0.032900
      7 PA           1.8950     0.0000    -1.5410 p5         1 DMA       1.242800
      8 O1A          1.3700    -1.2090    -2.2130 o          1 DMA      -0.800500
      9 O2A          1.3230     1.3130    -2.2740 o          1 DMA      -0.800500
     10 O3A          3.5030    -0.0000    -1.6150 os         1 DMA      -0.650800
     11 PB           3.8950    -0.0010    -3.1760 p5         1 DMA       1.174900
     12 O1B          3.3400     1.2070    -3.8260 o          1 DMA      -0.917833
     13 O2B          5.4990     0.0000    -3.3270 o          1 DMA      -0.917833
     14 O3B          3.2910    -1.3150    -3.8820 o          1 DMA      -0.917833
     15 H11         -0.3610    -0.8850    -0.5100 h1         1 DMA       0.060700
     16 H12         -0.3610     0.8850    -0.5110 h1         1 DMA       0.060700
     17 H2           0.0120    -0.5860     2.1740 ha         1 DMA       0.105000
     18 H41         -1.9320     1.9320     3.5100 hc         1 DMA       0.021700
     19 H42         -1.1840     0.3610     3.8310 hc         1 DMA       0.021700
     20 H43         -2.8810     0.4490     3.3370 hc         1 DMA       0.021700
     21 H51         -1.5240     2.3630     0.3310 hc         1 DMA       0.021700
     22 H52         -3.0590     2.0920     1.1680 hc         1 DMA       0.021700
     23 H53         -2.5220     0.9620    -0.0820 hc         1 DMA       0.021700
@<TRIPOS>BOND
     1     1     2 1
     2     1     3 1
     3     1    15 1
     4     1    16 1
     5     2     7 1
     6     3     4 2
     7     3    17 1
     8     4     5 1
     9     4     6 1
    10     5    18 1
    11     5    19 1
    12     5    20 1
    13     6    21 1
    14     6    22 1
    15     6    23 1
    16     7     8 1
    17     7     9 1
    18     7    10 1
    19    10    11 1
    20    11    12 1
    21    11    13 1
    22    11    14 1
@<TRIPOS>SUBSTRUCTURE
     1 DMA         1 TEMP              0 ****  ****    0 ROOT
