@<TRIPOS>MOLECULE
molecule
   33    34     1     0     0
SMALL
bcc


@<TRIPOS>ATOM
      1 C1           0.0000     0.0000     0.0000 ca         1 DMB       0.085400
      2 C2           1.4100     0.0000     0.0000 ca         1 DMB      -0.028600
      3 C3           2.0980     0.0000     1.2120 ca         1 DMB      -0.116000
      4 C4           1.3990    -0.0110     2.4020 ca         1 DMB      -0.128000
      5 C5           0.0140    -0.0160     2.4030 ca         1 DMB      -0.174000
      6 C6          -0.6870    -0.0100     1.2150 ca         1 DMB      -0.127000
      7 C1'         -2.6640     0.0060    -2.3500 ca         1 DMB       0.137400
      8 C2'         -4.0640     0.0020    -2.3450 ca         1 DMB      -0.105500
      9 C3'         -4.7540     0.0080    -3.5380 ca         1 DMB      -0.114800
     10 C4'         -4.0620     0.0140    -4.7430 ca         1 DMB       0.084100
     11 C5'         -2.6720     0.0240    -4.7520 ca         1 DMB      -0.114800
     12 C6'         -1.9740     0.0180    -3.5650 ca         1 DMB      -0.105500
     13 C            2.1520     0.0110    -1.2750 c          1 DMB       0.875200
     14 CM3         -6.2600     0.0030    -3.5340 c3         1 DMB      -0.038800
     15 CM5         -1.9280     0.0350    -6.0630 c3         1 DMB      -0.038800
     16 N1          -0.6880     0.0050    -1.1790 ne         1 DMB      -0.106400
     17 N1'         -1.9770     0.0010    -1.1720 nf         1 DMB      -0.307400
     18 O            1.5480     0.0100    -2.3290 o          1 DMB      -0.820800
     19 OXT          3.4990     0.0220    -1.2700 o          1 DMB      -0.820800
     20 O4'         -4.7470     0.0200    -5.9150 oh         1 DMB      -0.528100
     21 H3           3.1810     0.0020     1.2200 ha         1 DMB       0.162000
     22 H4           1.9380    -0.0130     3.3420 ha         1 DMB       0.108000
     23 H5          -0.5230    -0.0240     3.3440 ha         1 DMB       0.107000
     24 H6          -1.7700    -0.0120     1.2240 ha         1 DMB       0.136000
     25 H2'         -4.6040    -0.0050    -1.4060 ha         1 DMB       0.168000
     26 H6'         -0.8900     0.0240    -3.5740 ha         1 DMB       0.168000
     27 HM31        -6.6260     0.8100    -4.1580 hc         1 DMB       0.039700
     28 HM32        -6.6200     0.1380    -2.5210 hc         1 DMB       0.039700
     29 HM33        -6.6190    -0.9430    -3.9220 hc         1 DMB       0.039700
     30 HM51        -2.3170     0.8270    -6.6920 hc         1 DMB       0.039700
     31 HM52        -2.0580    -0.9180    -6.5600 hc         1 DMB       0.039700
     32 HM53        -0.8740     0.2060    -5.8780 hc         1 DMB       0.039700
     33 HO4'        -4.9010    -0.8680    -6.1930 ho         1 DMB       0.407000
@<TRIPOS>BOND
     1     1     2 ar
     2     1     6 ar
     3     1    16 1
     4     2     3 ar
     5     2    13 1
     6     3     4 ar
     7     3    21 1
     8     4     5 ar
     9     4    22 1
    10     5     6 ar
    11     5    23 1
    12     6    24 1
    13     7     8 ar
    14     7    12 ar
    15     7    17 1
    16     8     9 ar
    17     8    25 1
    18     9    10 ar
    19     9    14 1
    20    10    11 ar
    21    10    20 1
    22    11    12 ar
    23    11    15 1
    24    12    26 1
    25    13    18 1
    26    13    19 1
    27    14    27 1
    28    14    28 1
    29    14    29 1
    30    15    30 1
    31    15    31 1
    32    15    32 1
    33    16    17 2
    34    20    33 1
@<TRIPOS>SUBSTRUCTURE
     1 DMB         1 TEMP              0 ****  ****    0 ROOT
