@<TRIPOS>MOLECULE
DMB
   33    34     1     0     0
SMALL
bcc


@<TRIPOS>ATOM
      1 C1           0.0000     0.0000     0.0000 ca         1 DMB       0.047400
      2 C2           1.4100     0.0000     0.0000 ca         1 DMB      -0.030600
      3 C3           2.0980     0.0000     1.2120 ca         1 DMB      -0.088000
      4 C4           1.3990    -0.0110     2.4020 ca         1 DMB      -0.106000
      5 C5           0.0140    -0.0160     2.4030 ca         1 DMB      -0.150000
      6 C6          -0.6870    -0.0100     1.2150 ca         1 DMB      -0.107000
      7 C1'         -2.6640     0.0060    -2.3500 ca         1 DMB       0.106400
      8 C2'         -4.0640     0.0020    -2.3450 ca         1 DMB      -0.085500
      9 C3'         -4.7540     0.0080    -3.5380 ca         1 DMB      -0.129800
     10 C4'         -4.0620     0.0140    -4.7430 ca         1 DMB       0.098100
     11 C5'         -2.6720     0.0240    -4.7520 ca         1 DMB      -0.129800
     12 C6'         -1.9740     0.0180    -3.5650 ca         1 DMB      -0.085500
     13 C            2.1520     0.0110    -1.2750 c          1 DMB       0.963200
     14 CM3         -6.2600     0.0030    -3.5340 c3         1 DMB       0.072700
     15 CM5         -1.9280     0.0350    -6.0630 c3         1 DMB       0.072700
     16 N1          -0.6880     0.0050    -1.1790 ne         1 DMB      -0.028400
     17 N1'         -1.9770     0.0010    -1.1720 nf         1 DMB      -0.285400
     18 O            1.5480     0.0100    -2.3290 o          1 DMB      -0.870800
     19 OXT          3.4990     0.0220    -1.2700 o          1 DMB      -0.870800
     20 O4'         -4.7470     0.0200    -5.9150 oh         1 DMB      -0.504100
     21 H3           3.1810     0.0020     1.2200 ha         1 DMB       0.134000
     22 H4           1.9380    -0.0130     3.3420 ha         1 DMB       0.084000
     23 H5          -0.5230    -0.0240     3.3440 ha         1 DMB       0.086000
     24 H6          -1.7700    -0.0120     1.2240 ha         1 DMB       0.113000
     25 H2'         -4.6040    -0.0050    -1.4060 ha         1 DMB       0.141000
     26 H6'         -0.8900     0.0230    -3.5740 ha         1 DMB       0.141000
     27 HM31        -6.6190    -0.9430    -3.9220 hc         1 DMB       0.003867
     28 HM32        -6.6200     0.1380    -2.5220 hc         1 DMB       0.003867
     29 HM33        -6.6260     0.8100    -4.1580 hc         1 DMB       0.003867
     30 HM51        -2.0580    -0.9180    -6.5600 hc         1 DMB       0.003867
     31 HM52        -0.8740     0.2060    -5.8780 hc         1 DMB       0.003867
     32 HM53        -2.3170     0.8270    -6.6920 hc         1 DMB       0.003867
     33 HO4'        -4.9020    -0.8680    -6.1930 ho         1 DMB       0.391000
@<TRIPOS>BOND
     1     1     2 ar  
     2     1     6 ar  
     3     1    16 1   
     4     2     3 ar  
     5     2    13 1   
     6     3     4 ar  
     7     3    21 1   
     8     4     5 ar  
     9     4    22 1   
    10     5     6 ar  
    11     5    23 1   
    12     6    24 1   
    13     7     8 ar  
    14     7    12 ar  
    15     7    17 1   
    16     8     9 ar  
    17     8    25 1   
    18     9    10 ar  
    19     9    14 1   
    20    10    11 ar  
    21    10    20 1   
    22    11    12 ar  
    23    11    15 1   
    24    12    26 1   
    25    13    18 1   
    26    13    19 1   
    27    14    27 1   
    28    14    28 1   
    29    14    29 1   
    30    15    30 1   
    31    15    31 1   
    32    15    32 1   
    33    16    17 2   
    34    20    33 1   
@<TRIPOS>SUBSTRUCTURE
     1 DMB         1 TEMP              0 ****  ****    0 ROOT
