@<TRIPOS>MOLECULE
molecule
   36    36     1     0     0
SMALL
bcc


@<TRIPOS>ATOM
      1 O            0.0000     0.0000     0.0000 o          1 DMC      -0.845800
      2 C            1.2160     0.0000     0.0000 c          1 DMC       0.871800
      3 CA           1.9230     0.0000     1.2260 ce         1 DMC      -0.107400
      4 CB1          1.2470     0.0020     2.3980 cf         1 DMC      -0.156200
      5 CB2          3.4300     0.0000     1.2270 c3         1 DMC      -0.054900
      6 CG           1.9670    -0.1830     3.6610 ca         1 DMC      -0.075800
      7 CD1          1.5710     0.5250     4.8090 ca         1 DMC       0.137100
      8 CE1          2.2550     0.3380     5.9960 ca         1 DMC      -0.261000
      9 CZ           3.3320    -0.5380     6.0460 ca         1 DMC       0.190600
     10 CE2          3.7210    -1.2390     4.9050 ca         1 DMC      -0.222000
     11 CD2          3.0520    -1.0660     3.7290 ca         1 DMC      -0.074000
     12 OH           0.5220     1.3830     4.7550 oh         1 DMC      -0.503100
     13 N            4.0200    -0.7220     7.2400 nh         1 DMC      -0.742000
     14 CH1          5.2400    -1.5340     7.2640 c3         1 DMC       0.239800
     15 CH2          3.5290    -0.1040     8.4720 c3         1 DMC       0.239800
     16 CM1          4.8760    -2.9920     7.5470 c3         1 DMC      -0.122100
     17 CM2          4.1430     1.2890     8.6250 c3         1 DMC      -0.122100
     18 OXT          1.8910    -0.0020    -1.1680 o          1 DMC      -0.845800
     19 HB1          0.1630     0.0040     2.3940 ha         1 DMC       0.155000
     20 HB21         3.7910     0.5160     0.3460 hc         1 DMC       0.033033
     21 HB22         3.7910    -1.0210     1.2220 hc         1 DMC       0.033033
     22 HB23         3.7900     0.5060     2.1150 hc         1 DMC       0.033033
     23 HE1          1.9240     0.8420     6.8970 ha         1 DMC       0.122000
     24 HE2          4.5570    -1.9250     4.9530 ha         1 DMC       0.120000
     25 HD2          3.3320    -1.6470     2.8590 ha         1 DMC       0.151000
     26 HO          -0.1720     1.0660     5.3080 ho         1 DMC       0.405000
     27 HH11         5.9020    -1.1690     8.0410 h1         1 DMC       0.042950
     28 HH12         5.7380    -1.4660     6.3040 h1         1 DMC       0.042950
     29 HH21         2.4500    -0.0200     8.4290 h1         1 DMC       0.042950
     30 HH22         3.8090    -0.7170     9.3200 h1         1 DMC       0.042950
     31 HM11         3.8180    -3.1410     7.3700 hc         1 DMC       0.037700
     32 HM12         5.1070    -3.2280     8.5790 hc         1 DMC       0.037700
     33 HM13         5.4460    -3.6400     6.8920 hc         1 DMC       0.037700
     34 HM21         3.3690     1.9960     8.8990 hc         1 DMC       0.037700
     35 HM22         4.5930     1.5900     7.6870 hc         1 DMC       0.037700
     36 HM23         4.9010     1.2660     9.3980 hc         1 DMC       0.037700
@<TRIPOS>BOND
     1     1     2 1
     2     2     3 1
     3     2    18 1
     4     3     4 2
     5     3     5 1
     6     4     6 1
     7     4    19 1
     8     5    20 1
     9     5    21 1
    10     5    22 1
    11     6     7 ar
    12     6    11 ar
    13     7     8 ar
    14     7    12 1
    15     8     9 ar
    16     8    23 1
    17     9    10 ar
    18     9    13 1
    19    10    11 ar
    20    10    24 1
    21    11    25 1
    22    12    26 1
    23    13    14 1
    24    13    15 1
    25    14    16 1
    26    14    27 1
    27    14    28 1
    28    15    17 1
    29    15    29 1
    30    15    30 1
    31    16    31 1
    32    16    32 1
    33    16    33 1
    34    17    34 1
    35    17    35 1
    36    17    36 1
@<TRIPOS>SUBSTRUCTURE
     1 DMC         1 TEMP              0 ****  ****    0 ROOT
