@<TRIPOS>MOLECULE
DMC
   36    37     1     0     0
SMALL
bcc


@<TRIPOS>ATOM
      1 O            0.0000     0.0000     0.0000 o          1 DMC      -0.587500
      2 C            1.2160     0.0000     0.0000 c2         1 DMC       0.375000
      3 CA           1.9230     0.0000     1.2260 c2         1 DMC       0.108000
      4 CB1          1.2470     0.0020     2.3980 c2         1 DMC      -0.395000
      5 CB2          3.4300     0.0000     1.2270 c3         1 DMC      -0.161000
      6 CG           1.9670    -0.1830     3.6610 c3         1 DMC      -0.126000
      7 CD1          1.5710     0.5250     4.8090 c2         1 DMC       0.101000
      8 CE1          2.2550     0.3380     5.9960 c2         1 DMC      -0.247000
      9 CZ           3.3320    -0.5380     6.0460 c2         1 DMC      -0.022000
     10 CE2          3.7210    -1.2390     4.9050 c2         1 DMC      -0.202000
     11 CD2          3.0520    -1.0660     3.7290 c2         1 DMC      -0.085000
     12 OH           0.5220     1.3830     4.7550 oh         1 DMC      -0.240000
     13 N            4.0200    -0.7220     7.2400 n3         1 DMC       0.003000
     14 CH1          5.2400    -1.5340     7.2640 c3         1 DMC      -0.062000
     15 CH2          3.5290    -0.1040     8.4720 c3         1 DMC      -0.062000
     16 CM1          4.8760    -2.9920     7.5470 c3         1 DMC      -0.147000
     17 CM2          4.1430     1.2890     8.6250 c3         1 DMC      -0.147000
     18 OXT          1.8910    -0.0020    -1.1680 o          1 DMC      -0.587500
     19 HB1          1.7130     0.8440     2.8950 DU         1 DMC       0.254000
     20 HB21         3.7900     0.5240     2.1050 hc         1 DMC       0.059667
     21 HB22         3.7910     0.4980     0.3360 hc         1 DMC       0.059667
     22 HB23         3.7910    -1.0210     1.2430 hc         1 DMC       0.059667
     23 HE1          1.9250     0.8430     6.8960 ha         1 DMC       0.115000
     24 HE2          4.5590    -1.9230     4.9520 ha         1 DMC       0.106000
     25 HD2          3.3280    -1.6510     2.8600 ha         1 DMC       0.125000
     26 HO          -0.2080     1.0170     5.2260 ho         1 DMC       0.198000
     27 HH11         5.7380    -1.4660     6.3040 h1         1 DMC       0.058250
     28 HH12         5.9020    -1.1690     8.0410 h1         1 DMC       0.058250
     29 HH21         3.8090    -0.7170     9.3200 h1         1 DMC       0.058250
     30 HH22         2.4500    -0.0200     8.4290 h1         1 DMC       0.058250
     31 HM11         5.0900    -3.2230     8.5830 hc         1 DMC       0.045833
     32 HM12         3.8210    -3.1450     7.3530 hc         1 DMC       0.045833
     33 HM13         5.4590    -3.6410     6.9050 hc         1 DMC       0.045833
     34 HM21         4.9360     1.2550     9.3620 hc         1 DMC       0.045833
     35 HM22         4.5480     1.6110     7.6740 hc         1 DMC       0.045833
     36 HM23         3.3790     1.9860     8.9480 hc         1 DMC       0.045833
@<TRIPOS>BOND
     1     1     2 1   
     2     2     3 1   
     3     2    18 1   
     4     3     4 1   
     5     3     5 1   
     6     4     6 1   
     7     4    19 1   
     8     5    20 1   
     9     5    21 1   
    10     5    22 1   
    11     6     7 1   
    12     6    11 1   
    13     6    19 1   
    14     7     8 1   
    15     7    12 1   
    16     8     9 1   
    17     8    23 1   
    18     9    10 1   
    19     9    13 1   
    20    10    11 1   
    21    10    24 1   
    22    11    25 1   
    23    12    26 1   
    24    13    14 1   
    25    13    15 1   
    26    14    16 1   
    27    14    27 1   
    28    14    28 1   
    29    15    17 1   
    30    15    29 1   
    31    15    30 1   
    32    16    31 1   
    33    16    32 1   
    34    16    33 1   
    35    17    34 1   
    36    17    35 1   
    37    17    36 1   
@<TRIPOS>SUBSTRUCTURE
     1 DMC         1 TEMP              0 ****  ****    0 ROOT
