@<TRIPOS>MOLECULE
molecule
   21    22     1     0     0
SMALL
bcc


@<TRIPOS>ATOM
      1 N3           0.0000     0.0000     0.0000 na         1 DMD      -0.270300
      2 N1           1.8070     0.0000     1.2220 nc         1 DMD      -0.602100
      3 C2           1.3600     0.0000     0.0000 cd         1 DMD       0.422700
      4 C7A          0.7620    -0.0020     2.0890 ca         1 DMD       0.088400
      5 C3A         -0.4110    -0.0020     1.3180 ca         1 DMD      -0.094200
      6 C4          -1.6490    -0.0030     1.9430 ca         1 DMD      -0.128000
      7 C5          -1.7180    -0.0040     3.3200 ca         1 DMD      -0.064300
      8 C6          -0.5590    -0.0010     4.0820 ca         1 DMD      -0.100300
      9 C7           0.6680    -0.0030     3.4830 ca         1 DMD      -0.065000
     10 C8          -3.0620    -0.0050     4.0030 c3         1 DMD      -0.043800
     11 C9          -0.6560    -0.0020     5.5860 c3         1 DMD      -0.041800
     12 HN31        -0.5930    -0.0000    -0.8060 hn         1 DMD       0.300700
     13 H21          1.9810     0.0000    -0.8880 h5         1 DMD       0.071800
     14 H41         -2.5570    -0.0060     1.3520 ha         1 DMD       0.127000
     15 H71          1.5670    -0.0010     4.0870 ha         1 DMD       0.143000
     16 H81         -3.1510    -0.8890     4.6230 hc         1 DMD       0.043033
     17 H82         -3.1540     0.8800     4.6200 hc         1 DMD       0.043033
     18 H83         -3.8470    -0.0080     3.2560 hc         1 DMD       0.043033
     19 H91          0.3400     0.0010     6.0120 hc         1 DMD       0.042033
     20 H92         -1.1920     0.8800     5.9140 hc         1 DMD       0.042033
     21 H93         -1.1850    -0.8890     5.9130 hc         1 DMD       0.042033
@<TRIPOS>BOND
     1     1     3 1
     2     1     5 1
     3     1    12 1
     4     2     3 2
     5     2     4 1
     6     3    13 1
     7     4     5 ar
     8     4     9 ar
     9     5     6 ar
    10     6     7 ar
    11     6    14 1
    12     7     8 ar
    13     7    10 1
    14     8     9 ar
    15     8    11 1
    16     9    15 1
    17    10    16 1
    18    10    17 1
    19    10    18 1
    20    11    19 1
    21    11    20 1
    22    11    21 1
@<TRIPOS>SUBSTRUCTURE
     1 DMD         1 TEMP              0 ****  ****    0 ROOT
