@<TRIPOS>MOLECULE
DMD
   21    22     1     0     0
SMALL
bcc


@<TRIPOS>ATOM
      1 N3         -0.0200   -0.0020   -0.0250 na        1 DMD     -0.292300
      2 N1          1.9050    0.0010    1.2320 nc        1 DMD     -0.565100
      3 C2          1.3880    0.0000   -0.0060 cd        1 DMD      0.416700
      4 C7A         0.7910   -0.0010    2.1000 ca        1 DMD      0.062400
      5 C3A        -0.4300   -0.0020    1.3130 ca        1 DMD     -0.074200
      6 C4         -1.6870   -0.0040    1.9230 ca        1 DMD     -0.135000
      7 C5         -1.7380   -0.0040    3.3140 ca        1 DMD     -0.057300
      8 C6         -0.5520   -0.0020    4.0930 ca        1 DMD     -0.100300
      9 C7          0.7050   -0.0010    3.4970 ca        1 DMD     -0.066000
     10 C8         -3.0550   -0.0050    3.9940 c3        1 DMD     -0.052800
     11 C9         -0.6570   -0.0020    5.5720 c3        1 DMD     -0.048800
     12 HN31       -0.6050   -0.0020   -0.8150 hn        1 DMD      0.304700
     13 H21         1.9730    0.0010   -0.9330 h5        1 DMD      0.066800
     14 H41        -2.6080   -0.0050    1.3240 ha        1 DMD      0.134000
     15 H71         1.6210    0.0000    4.1060 ha        1 DMD      0.148000
     16 H81        -3.1540   -0.9110    4.6440 hc        1 DMD      0.044033
     17 H82        -3.1560    0.9000    4.6440 hc        1 DMD      0.044033
     18 H83        -3.8960   -0.0060    3.2580 hc        1 DMD      0.044033
     19 H91        -1.2130   -0.9090    5.9220 hc        1 DMD      0.042367
     20 H92         0.3520   -0.0010    6.0520 hc        1 DMD      0.042367
     21 H93        -1.2150    0.9030    5.9220 hc        1 DMD      0.042367
@<TRIPOS>BOND
     1    1    3 1   
     2    1    5 1   
     3    1   12 1   
     4    2    3 2   
     5    2    4 1   
     6    3   13 1   
     7    4    5 ar  
     8    4    9 ar  
     9    5    6 ar  
    10    6    7 ar  
    11    6   14 1   
    12    7    8 ar  
    13    7   10 1   
    14    8    9 ar  
    15    8   11 1   
    16    9   15 1   
    17   10   16 1   
    18   10   17 1   
    19   10   18 1   
    20   11   19 1   
    21   11   20 1   
    22   11   21 1   
@<TRIPOS>SUBSTRUCTURE
     1 DMD         1 TEMP              0 ****  ****    0 ROOT
