@<TRIPOS>MOLECULE
molecule
   56    55     1     0     0
SMALL
bcc


@<TRIPOS>ATOM
      1 N1           0.0000     0.0000     0.0000 n4         1 DME      -0.577800
      2 C2           1.4690     0.0000     0.0000 c3         1 DME       0.102800
      3 C3           1.9780     0.0000     1.4430 c3         1 DME      -0.110400
      4 C4           3.5090    -0.0000     1.4440 c3         1 DME      -0.077400
      5 C5           4.0180    -0.0000     2.8860 c3         1 DME      -0.079400
      6 C6           5.5480    -0.0000     2.8870 c3         1 DME      -0.080400
      7 C7           6.0570    -0.0000     4.3290 c3         1 DME      -0.080400
      8 C8           7.5870    -0.0000     4.3300 c3         1 DME      -0.079400
      9 C9           8.0970    -0.0000     5.7720 c3         1 DME      -0.077400
     10 C10          9.6270    -0.0000     5.7730 c3         1 DME      -0.110400
     11 C11         10.1370    -0.0000     7.2160 c3         1 DME       0.102800
     12 N12         11.6060    -0.0000     7.2160 n4         1 DME      -0.577800
     13 C13         -0.4900     1.1990     0.6930 c3         1 DME       0.093600
     14 C14         -0.4900    -1.2000     0.6920 c3         1 DME       0.093600
     15 C15         -0.4890     0.0010    -1.3860 c3         1 DME       0.093600
     16 C16         12.0950     1.2000     6.5240 c3         1 DME       0.093600
     17 C17         12.0950    -0.0010     8.6010 c3         1 DME       0.093600
     18 C18         12.0960    -1.1990     6.5230 c3         1 DME       0.093600
     19 H21          1.8300     0.8850    -0.5110 hx         1 DME       0.101700
     20 H22          1.8300    -0.8850    -0.5110 hx         1 DME       0.101700
     21 H31          1.6170    -0.8850     1.9530 hc         1 DME       0.062700
     22 H32          1.6170     0.8850     1.9530 hc         1 DME       0.062700
     23 H41          3.8700    -0.8840     0.9330 hc         1 DME       0.056700
     24 H42          3.8700     0.8840     0.9330 hc         1 DME       0.056700
     25 H51          3.6570    -0.8850     3.3970 hc         1 DME       0.049700
     26 H52          3.6570     0.8850     3.3970 hc         1 DME       0.049700
     27 H61          5.9100     0.8850     2.3760 hc         1 DME       0.049700
     28 H62          5.9100    -0.8850     2.3760 hc         1 DME       0.049700
     29 H71          5.6960    -0.8850     4.8400 hc         1 DME       0.049700
     30 H72          5.6960     0.8850     4.8400 hc         1 DME       0.049700
     31 H81          7.9490    -0.8850     3.8190 hc         1 DME       0.049700
     32 H82          7.9490     0.8850     3.8190 hc         1 DME       0.049700
     33 H91          7.7350    -0.8840     6.2830 hc         1 DME       0.056700
     34 H92          7.7350     0.8840     6.2830 hc         1 DME       0.056700
     35 H101         9.9890    -0.8850     5.2630 hc         1 DME       0.062700
     36 H102         9.9890     0.8850     5.2630 hc         1 DME       0.062700
     37 H111         9.7750    -0.8850     7.7260 hx         1 DME       0.101700
     38 H112         9.7750     0.8850     7.7260 hx         1 DME       0.101700
     39 H131        -1.5110     1.3990     0.3900 hx         1 DME       0.099978
     40 H132         0.1350     2.0460     0.4350 hx         1 DME       0.099978
     41 H133        -0.4560     1.0370     1.7630 hx         1 DME       0.099978
     42 H141        -1.5100    -1.4000     0.3890 hx         1 DME       0.099978
     43 H142        -0.4550    -1.0390     1.7620 hx         1 DME       0.099978
     44 H143         0.1360    -2.0460     0.4340 hx         1 DME       0.099978
     45 H151        -0.1290     0.8860    -1.8950 hx         1 DME       0.099978
     46 H152        -0.1280    -0.8830    -1.8970 hx         1 DME       0.099978
     47 H153        -1.5730     0.0010    -1.3860 hx         1 DME       0.099978
     48 H161        13.1160     1.4000     6.8270 hx         1 DME       0.099978
     49 H162        12.0610     1.0390     5.4540 hx         1 DME       0.099978
     50 H163        11.4700     2.0460     6.7820 hx         1 DME       0.099978
     51 H171        11.7340     0.8830     9.1130 hx         1 DME       0.099978
     52 H172        11.7340    -0.8860     9.1110 hx         1 DME       0.099978
     53 H173        13.1780    -0.0010     8.6020 hx         1 DME       0.099978
     54 H181        13.1170    -1.3990     6.8260 hx         1 DME       0.099978
     55 H182        12.0610    -1.0370     5.4530 hx         1 DME       0.099978
     56 H183        11.4710    -2.0460     6.7810 hx         1 DME       0.099978
@<TRIPOS>BOND
     1     1     2 1
     2     1    13 1
     3     1    14 1
     4     1    15 1
     5     2     3 1
     6     2    19 1
     7     2    20 1
     8     3     4 1
     9     3    21 1
    10     3    22 1
    11     4     5 1
    12     4    23 1
    13     4    24 1
    14     5     6 1
    15     5    25 1
    16     5    26 1
    17     6     7 1
    18     6    27 1
    19     6    28 1
    20     7     8 1
    21     7    29 1
    22     7    30 1
    23     8     9 1
    24     8    31 1
    25     8    32 1
    26     9    10 1
    27     9    33 1
    28     9    34 1
    29    10    11 1
    30    10    35 1
    31    10    36 1
    32    11    12 1
    33    11    37 1
    34    11    38 1
    35    12    16 1
    36    12    17 1
    37    12    18 1
    38    13    39 1
    39    13    40 1
    40    13    41 1
    41    14    42 1
    42    14    43 1
    43    14    44 1
    44    15    45 1
    45    15    46 1
    46    15    47 1
    47    16    48 1
    48    16    49 1
    49    16    50 1
    50    17    51 1
    51    17    52 1
    52    17    53 1
    53    18    54 1
    54    18    55 1
    55    18    56 1
@<TRIPOS>SUBSTRUCTURE
     1 DME         1 TEMP              0 ****  ****    0 ROOT
