@<TRIPOS>MOLECULE
molecule
   12    11     1     0     0
SMALL
bcc


@<TRIPOS>ATOM
      1 C1           0.0000     0.0000     0.0000 c3         1 DMF       0.098300
      2 C2           2.1970     0.0000     1.2680 c3         1 DMF       0.098300
      3 C            2.1370    -0.0000    -1.1670 c          1 DMF       0.656900
      4 O            3.3510    -0.0000    -1.1680 o          1 DMF      -0.611100
      5 N            1.4650     0.0000     0.0000 n          1 DMF      -0.508800
      6 H11         -0.3610     0.6590     0.7800 h1         1 DMF       0.040533
      7 H12         -0.3610     0.3470    -0.9610 h1         1 DMF       0.040533
      8 H13         -0.3610    -1.0050     0.1800 h1         1 DMF       0.040533
      9 H21          2.7300     0.9370     1.3770 h1         1 DMF       0.040533
     10 H22          2.9040    -0.8210     1.2760 h1         1 DMF       0.040533
     11 H23          1.4990    -0.1160     2.0880 h1         1 DMF       0.040533
     12 HC           1.5950    -0.0270    -2.1050 h5         1 DMF       0.023200
@<TRIPOS>BOND
     1     1     5 1
     2     1     6 1
     3     1     7 1
     4     1     8 1
     5     2     5 1
     6     2     9 1
     7     2    10 1
     8     2    11 1
     9     3     4 2
    10     3     5 1
    11     3    12 1
@<TRIPOS>SUBSTRUCTURE
     1 DMF         1 TEMP              0 ****  ****    0 ROOT
