@<TRIPOS>MOLECULE
molecule
   15    14     1     0     0
SMALL
bcc


@<TRIPOS>ATOM
      1 OXT          0.0000     0.0000     0.0000 o          1 DMG      -0.848300
      2 O            1.9460     0.0030    -1.0450 o          1 DMG      -0.848300
      3 C            1.3430     0.0000     0.0000 c          1 DMG       0.893600
      4 CA           2.0950     0.0000     1.3050 c3         1 DMG       0.025800
      5 N            3.5390     0.0010     1.0370 n3         1 DMG      -0.645600
      6 C4           4.2110    -0.0010     2.3420 c3         1 DMG       0.128100
      7 C5           3.8520    -1.2840     0.4000 c3         1 DMG       0.128100
      8 HA1          1.8320     0.8840     1.8730 h1         1 DMG       0.023700
      9 HA2          1.8340    -0.8850     1.8720 h1         1 DMG       0.023700
     10 H41          3.9320    -0.8920     2.8910 h1         1 DMG       0.019867
     11 H42          3.9130     0.8770     2.9040 h1         1 DMG       0.019867
     12 H43          5.2840     0.0120     2.1960 h1         1 DMG       0.019867
     13 H51          3.8230    -1.1700    -0.6770 h1         1 DMG       0.019867
     14 H52          4.8410    -1.6060     0.7030 h1         1 DMG       0.019867
     15 H53          3.1230    -2.0250     0.7050 h1         1 DMG       0.019867
@<TRIPOS>BOND
     1     1     3 1
     2     2     3 1
     3     3     4 1
     4     4     5 1
     5     4     8 1
     6     4     9 1
     7     5     6 1
     8     5     7 1
     9     6    10 1
    10     6    11 1
    11     6    12 1
    12     7    13 1
    13     7    14 1
    14     7    15 1
@<TRIPOS>SUBSTRUCTURE
     1 DMG         1 TEMP              0 ****  ****    0 ROOT
