@<TRIPOS>MOLECULE
DMI
   16    16     1     0     0
SMALL
bcc


@<TRIPOS>ATOM
      1 N1         -0.0560    0.0030   -0.0210 na        1 DMI     -0.142100
      2 C2          1.3260   -0.0020   -0.0290 cc        1 DMI      0.034100
      3 CM2         2.2000   -0.0100   -1.2280 c3        1 DMI     -0.065800
      4 N3          1.7530    0.0010    1.2890 na        1 DMI     -0.022100
      5 CM3         3.1240   -0.0030    1.7190 c3        1 DMI     -0.003400
      6 C4          0.6250    0.0080    2.1270 cc        1 DMI     -0.116300
      7 C5         -0.5070    0.0100    1.3040 cd        1 DMI     -0.108300
      8 HN1        -0.6300    0.0030   -0.8350 hn        1 DMI      0.357700
      9 HM21        1.5950   -0.0070   -2.1700 hc        1 DMI      0.103033
     10 HM22        2.8610    0.8960   -1.2200 hc        1 DMI      0.103033
     11 HM23        2.8460   -0.9270   -1.2180 hc        1 DMI      0.103033
     12 HM31        3.6410   -0.9220    1.3260 h1        1 DMI      0.095700
     13 HM32        3.6450    0.9140    1.3280 h1        1 DMI      0.095700
     14 HM33        3.1590   -0.0040    2.8420 h1        1 DMI      0.095700
     15 H4          0.7060    0.0120    3.2190 h4        1 DMI      0.234000
     16 H5         -1.5720    0.0150    1.5630 h4        1 DMI      0.236000
@<TRIPOS>BOND
     1    1    2 2   
     2    1    7 1   
     3    1    8 1   
     4    2    3 1   
     5    2    4 1   
     6    3    9 1   
     7    3   10 1   
     8    3   11 1   
     9    4    5 1   
    10    4    6 1   
    11    5   12 1   
    12    5   13 1   
    13    5   14 1   
    14    6    7 2   
    15    6   15 1   
    16    7   16 1   
@<TRIPOS>SUBSTRUCTURE
     1 DMI         1 TEMP              0 ****  ****    0 ROOT
