@<TRIPOS>MOLECULE
molecule
   16    16     1     0     0
SMALL
bcc


@<TRIPOS>ATOM
      1 N1           0.0000     0.0000     0.0000 na         1 DMI      -0.084100
      2 C2           1.3040     0.0000     0.0000 cc         1 DMI       0.001100
      3 CM2          2.1830    -0.0090    -1.2250 c3         1 DMI      -0.041800
      4 N3           1.7380     0.0000     1.2790 na         1 DMI      -0.013100
      5 CM3          3.1340    -0.0040     1.7240 c3         1 DMI       0.022600
      6 C4           0.6290     0.0100     2.0810 cc         1 DMI      -0.117300
      7 C5          -0.4430     0.0100     1.2660 cd         1 DMI      -0.144300
      8 HN1         -0.5790    -0.0020    -0.8160 hn         1 DMI       0.359700
      9 HM21         2.8020    -0.8980    -1.2190 hc         1 DMI       0.094033
     10 HM22         2.8150     0.8710    -1.2220 hc         1 DMI       0.094033
     11 HM23         1.5640    -0.0060    -2.1140 hc         1 DMI       0.094033
     12 HM31         3.6350     0.8790     1.3470 h1         1 DMI       0.090700
     13 HM32         3.1670    -0.0030     2.8070 h1         1 DMI       0.090700
     14 HM33         3.6300    -0.8900     1.3480 h1         1 DMI       0.090700
     15 H4           0.6160     0.0150     3.1640 h4         1 DMI       0.232000
     16 H5          -1.4800     0.0150     1.5780 h4         1 DMI       0.231000
@<TRIPOS>BOND
     1     1     2 2
     2     1     7 1
     3     1     8 1
     4     2     3 1
     5     2     4 1
     6     3     9 1
     7     3    10 1
     8     3    11 1
     9     4     5 1
    10     4     6 1
    11     5    12 1
    12     5    13 1
    13     5    14 1
    14     6     7 2
    15     6    15 1
    16     7    16 1
@<TRIPOS>SUBSTRUCTURE
     1 DMI         1 TEMP              0 ****  ****    0 ROOT
