@<TRIPOS>MOLECULE
molecule
   24    24     1     0     0
SMALL
bcc


@<TRIPOS>ATOM
      1 C4           0.0000     0.0000     0.0000 c3         1 DMJ       0.151100
      2 O4          -0.4770     0.1020    -1.3420 oh         1 DMJ      -0.613800
      3 C3           1.5310     0.0000     0.0000 c3         1 DMJ       0.129100
      4 O3           2.0130    -1.1670    -0.6710 oh         1 DMJ      -0.593800
      5 C2           2.0280     0.0000     1.4490 c3         1 DMJ       0.137100
      6 O2           1.6320    -1.2130     2.0900 oh         1 DMJ      -0.572800
      7 C1           1.4180     1.1930     2.1890 c3         1 DMJ       0.127800
      8 N5          -0.0430     1.0730     2.2010 n7         1 DMJ      -0.780200
      9 C5          -0.5030     1.1910     0.8150 c3         1 DMJ       0.158500
     10 C6          -2.0330     1.2180     0.7870 c3         1 DMJ       0.143400
     11 O6          -2.5040     2.3330     1.5440 oh         1 DMJ      -0.621800
     12 H4          -0.3590    -0.9190     0.4470 h1         1 DMJ       0.078700
     13 HO4         -0.8000    -0.7380    -1.6260 ho         1 DMJ       0.412000
     14 H3           1.8910     0.8880    -0.5040 h1         1 DMJ       0.045700
     15 HO3          2.6770    -0.9200    -1.2930 ho         1 DMJ       0.401000
     16 H2           3.1080     0.0840     1.4590 h1         1 DMJ       0.032700
     17 HO2          2.3560    -1.5570     2.5850 ho         1 DMJ       0.397000
     18 H11          1.7860     1.2090     3.2080 h1         1 DMJ       0.038200
     19 H12          1.6990     2.1100     1.6840 h1         1 DMJ       0.038200
     20 HN5         -0.4340     1.8150     2.7470 hn         1 DMJ       0.375800
     21 H5          -0.1150     2.1070     0.3870 h1         1 DMJ       0.037700
     22 H61         -2.4180     0.3010     1.2160 h1         1 DMJ       0.036700
     23 H62         -2.3730     1.3080    -0.2380 h1         1 DMJ       0.036700
     24 HO6         -3.4240     2.4580     1.3810 ho         1 DMJ       0.407000
@<TRIPOS>BOND
     1     1     2 1
     2     1     3 1
     3     1     9 1
     4     1    12 1
     5     2    13 1
     6     3     4 1
     7     3     5 1
     8     3    14 1
     9     4    15 1
    10     5     6 1
    11     5     7 1
    12     5    16 1
    13     6    17 1
    14     7     8 1
    15     7    18 1
    16     7    19 1
    17     8     9 1
    18     8    20 1
    19     9    10 1
    20     9    21 1
    21    10    11 1
    22    10    22 1
    23    10    23 1
    24    11    24 1
@<TRIPOS>SUBSTRUCTURE
     1 DMJ         1 TEMP              0 ****  ****    0 ROOT
