@<TRIPOS>MOLECULE
molecule
   10     9     1     0     0
SMALL
bcc


@<TRIPOS>ATOM
      1 N1           0.0000     0.0000     0.0000 n7         1 DMN      -0.801200
      2 C2           1.4680     0.0000     0.0000 c3         1 DMN       0.134100
      3 C3          -0.4230     0.0000     1.4060 c3         1 DMN       0.134100
      4 HN1         -0.3340     0.8300    -0.4490 hn         1 DMN       0.347800
      5 H21          1.8290     0.8830     0.5130 h1         1 DMN       0.030700
      6 H22          1.8290     0.0030    -1.0210 h1         1 DMN       0.030700
      7 H23          1.8290    -0.8860     0.5080 h1         1 DMN       0.030700
      8 H31         -0.0360     0.8830     1.8990 h1         1 DMN       0.030700
      9 H32         -0.0400    -0.8860     1.8980 h1         1 DMN       0.030700
     10 H33         -1.5050     0.0030     1.4570 h1         1 DMN       0.030700
@<TRIPOS>BOND
     1     1     2 1
     2     1     3 1
     3     1     4 1
     4     2     5 1
     5     2     6 1
     6     2     7 1
     7     3     8 1
     8     3     9 1
     9     3    10 1
@<TRIPOS>SUBSTRUCTURE
     1 DMN         1 TEMP              0 ****  ****    0 ROOT
