@<TRIPOS>MOLECULE
DMO
   25    24     1     0     0
SMALL
bcc


@<TRIPOS>ATOM
      1 CAO        -0.2840   -0.1740    0.0220 c3        1 DMO     -0.100800
      2 CO          1.1930    0.1080   -0.4660 c3        1 DMO      0.427900
      3 NO         -0.4490    0.3140    1.4310 n4        1 DMO     -0.827600
      4 CBO        -0.5450   -1.6790   -0.1300 c3        1 DMO     -0.098400
      5 CGO        -1.9970   -2.0970    0.0160 c3        1 DMO     -0.111400
      6 CDO        -2.7050   -2.4420   -1.2940 c3        1 DMO      0.115800
      7 NEO        -3.2110   -1.2740   -2.0650 n4        1 DMO     -0.862600
      8 C          -1.3740    0.5480   -0.8800 c         1 DMO      0.917600
      9 O          -2.4560    0.8240   -0.2870 o         1 DMO     -0.764300
     10 OH         -1.1450    0.6260   -2.1020 o         1 DMO     -0.764300
     11 F1          1.3290   -0.0720   -1.8130 f         1 DMO     -0.200800
     12 F2          1.5540    1.4180   -0.2560 f         1 DMO     -0.200800
     13 HCO1        1.8990   -0.5820    0.0920 h2        1 DMO      0.070700
     14 HNO1       -1.4540    0.5500    1.5550 hn        1 DMO      0.466133
     15 HNO2        0.1020    1.1720    1.5550 hn        1 DMO      0.466133
     16 HBO1        0.0770   -2.2510    0.6110 hc        1 DMO      0.086700
     17 HBO2       -0.1650   -1.9540   -1.1540 hc        1 DMO      0.086700
     18 HGO1       -2.5860   -1.3160    0.5720 hc        1 DMO      0.090200
     19 HGO2       -2.0340   -3.0390    0.6320 hc        1 DMO      0.090200
     20 HDO1       -2.0140   -3.0260   -1.9670 hx        1 DMO      0.103700
     21 HDO2       -3.5970   -3.0910   -1.0480 hx        1 DMO      0.103700
     22 HEO1       -3.5630   -0.5360   -1.4250 hn        1 DMO      0.480133
     23 HEO2       -3.9560   -1.5650   -2.6980 hn        1 DMO      0.480133
     24 HO3        -0.1620   -0.3890    2.1100 hn        1 DMO      0.466133
     25 HEO3       -2.4460   -0.8380   -2.6170 hn        1 DMO      0.480133
@<TRIPOS>BOND
     1    1    2 1
     2    1    3 1
     3    1    4 1
     4    1    8 1
     5    2   11 1
     6    2   12 1
     7    2   13 1
     8    3   14 1
     9    3   15 1
    10    3   24 1
    11    4    5 1
    12    4   16 1
    13    4   17 1
    14    5    6 1
    15    5   18 1
    16    5   19 1
    17    6    7 1
    18    6   20 1
    19    6   21 1
    20    7   22 1
    21    7   23 1
    22    7   25 1
    23    8    9 1
    24    8   10 1
@<TRIPOS>SUBSTRUCTURE
     1 DMO         1 TEMP              0 ****  ****    0 ROOT
