@<TRIPOS>MOLECULE
molecule
   80    84     1     0     0
SMALL
bcc


@<TRIPOS>ATOM
      1 C1           0.0000     0.0000     0.0000 c          1 DMP       0.830500
      2 C3           2.1440     0.0000     1.2070 c3         1 DMP       0.100700
      3 C4           1.5870     0.9850     2.2430 c3         1 DMP       0.105600
      4 C5           0.5020     0.3520     3.1010 c3         1 DMP       0.105600
      5 C6          -0.2740    -0.7020     2.3290 c3         1 DMP       0.100700
      6 C21          2.1440    -1.4090    -1.7970 ca         1 DMP      -0.111300
      7 C22          1.0860    -2.0180    -2.4450 ca         1 DMP      -0.107250
      8 C23          1.2120    -3.3150    -2.9050 ca         1 DMP      -0.119000
      9 C24          2.3960    -4.0030    -2.7180 ca         1 DMP      -0.083800
     10 C25          3.4530    -3.3960    -2.0650 ca         1 DMP      -0.119000
     11 C26          3.3270    -2.0980    -1.6080 ca         1 DMP      -0.107250
     12 C27          2.5340    -5.4170    -3.2200 c3         1 DMP       0.188200
     13 C30          2.1580    -1.4060     1.8070 c3         1 DMP      -0.061100
     14 C31          3.5770    -1.8030     2.1260 ca         1 DMP      -0.091300
     15 C32          4.1840    -1.3330     3.2750 ca         1 DMP      -0.125250
     16 C33          5.4860    -1.6970     3.5670 ca         1 DMP      -0.128250
     17 C34          6.1790    -2.5300     2.7100 ca         1 DMP      -0.127500
     18 C35          5.5720    -3.0010     1.5610 ca         1 DMP      -0.128250
     19 C36          4.2690    -2.6410     1.2710 ca         1 DMP      -0.125250
     20 C60         -1.4450    -1.1920     3.1830 c3         1 DMP      -0.061100
     21 C61         -0.9160    -1.8720     4.4190 ca         1 DMP      -0.091300
     22 C62         -0.7990    -1.1650     5.6010 ca         1 DMP      -0.125250
     23 C63         -0.3130    -1.7900     6.7340 ca         1 DMP      -0.128250
     24 C64          0.0550    -3.1210     6.6860 ca         1 DMP      -0.127500
     25 C65         -0.0630    -3.8280     5.5050 ca         1 DMP      -0.128250
     26 C66         -0.5530    -3.2050     4.3720 ca         1 DMP      -0.125250
     27 C71         -2.3240     1.7190     1.2600 ca         1 DMP      -0.111300
     28 C72         -2.2490     2.6200     0.2160 ca         1 DMP      -0.107250
     29 C73         -2.3640     3.9750     0.4620 ca         1 DMP      -0.119000
     30 C74         -2.5540     4.4290     1.7540 ca         1 DMP      -0.083800
     31 C75         -2.6310     3.5270     2.7990 ca         1 DMP      -0.119000
     32 C76         -2.5200     2.1720     2.5520 ca         1 DMP      -0.107250
     33 C77         -2.6780     5.9070     2.0230 c3         1 DMP       0.188200
     34 N2           1.3230     0.0000     0.0000 n          1 DMP      -0.487300
     35 N7          -0.7920    -0.1540     1.0760 n          1 DMP      -0.487300
     36 O1          -0.5520     0.1440    -1.0730 o          1 DMP      -0.715500
     37 O4           2.6530     1.4230     3.0880 oh         1 DMP      -0.601800
     38 O5          -0.4020     1.3690     3.5350 oh         1 DMP      -0.601800
     39 O27          2.9230    -5.3990    -4.5960 oh         1 DMP      -0.602800
     40 O77         -4.0510     6.2920     1.9400 oh         1 DMP      -0.602800
     41 H3           3.1550     0.2920     0.9470 h1         1 DMP       0.096200
     42 H4           1.1690     1.8390     1.7250 h1         1 DMP       0.065200
     43 H5           0.9620    -0.1120     3.9650 h1         1 DMP       0.065200
     44 H6           0.3840    -1.5340     2.1070 h1         1 DMP       0.096200
     45 H201         1.4320     0.5860    -2.0050 h1         1 DMP       0.069700
     46 H202         2.9910     0.4450    -1.1820 h1         1 DMP       0.069700
     47 H22          0.1580    -1.4790    -2.5920 ha         1 DMP       0.145750
     48 H23          0.3840    -3.7920    -3.4160 ha         1 DMP       0.130750
     49 H25          4.3810    -3.9350    -1.9170 ha         1 DMP       0.130750
     50 H26          4.1550    -1.6220    -1.0950 ha         1 DMP       0.145750
     51 H271         3.2870    -5.9340    -2.6390 h1         1 DMP       0.023450
     52 H272         1.5850    -5.9290    -3.1200 h1         1 DMP       0.023450
     53 H301         1.5680    -1.4170     2.7150 hc         1 DMP       0.070200
     54 H302         1.7380    -2.1070     1.0960 hc         1 DMP       0.070200
     55 H32          3.6400    -0.6800     3.9460 ha         1 DMP       0.138000
     56 H33          5.9620    -1.3280     4.4670 ha         1 DMP       0.129500
     57 H34          7.2000    -2.8140     2.9380 ha         1 DMP       0.129000
     58 H35          6.1150    -3.6560     0.8900 ha         1 DMP       0.129500
     59 H36          3.7920    -3.0100     0.3710 ha         1 DMP       0.138000
     60 H601        -2.0590    -0.3470     3.4710 hc         1 DMP       0.070200
     61 H602        -2.0400    -1.8930     2.6120 hc         1 DMP       0.070200
     62 H62         -1.0880    -0.1220     5.6390 ha         1 DMP       0.138000
     63 H63         -0.2210    -1.2350     7.6600 ha         1 DMP       0.129500
     64 H64          0.4370    -3.6100     7.5740 ha         1 DMP       0.129000
     65 H65          0.2230    -4.8720     5.4670 ha         1 DMP       0.129500
     66 H66         -0.6450    -3.7590     3.4460 ha         1 DMP       0.138000
     67 H701        -2.5780     0.0210     0.0010 h1         1 DMP       0.069700
     68 H702        -2.7740    -0.3090     1.7280 h1         1 DMP       0.069700
     69 H72         -2.1000     2.2650    -0.7970 ha         1 DMP       0.145750
     70 H73         -2.3050     4.6820    -0.3580 ha         1 DMP       0.130750
     71 H75         -2.7820     3.8820     3.8110 ha         1 DMP       0.130750
     72 H76         -2.5800     1.4650     3.3710 ha         1 DMP       0.145750
     73 H771        -2.1030     6.4570     1.2880 h1         1 DMP       0.023450
     74 H772        -2.3000     6.1260     3.0140 h1         1 DMP       0.023450
     75 HO4          2.7300     2.3610     3.0360 ho         1 DMP       0.404000
     76 HO5         -0.0050     1.8670     4.2310 ho         1 DMP       0.404000
     77 HO27         3.0290    -6.2840    -4.9030 ho         1 DMP       0.399500
     78 HO77        -4.1290     7.2170     2.1080 ho         1 DMP       0.399500
     79 C20          2.0070     0.0050    -1.2950 c3         1 DMP       0.166800
     80 C70         -2.2000     0.2410     0.9920 c3         1 DMP       0.166800
@<TRIPOS>BOND
     1     1    34 1
     2     1    35 1
     3     1    36 2
     4     2     3 1
     5     2    13 1
     6     2    34 1
     7     2    41 1
     8     3     4 1
     9     3    37 1
    10     3    42 1
    11     4     5 1
    12     4    38 1
    13     4    43 1
    14     5    20 1
    15     5    35 1
    16     5    44 1
    17    79     6 1
    18    79    34 1
    19    79    45 1
    20    79    46 1
    21     6     7 ar
    22     6    11 ar
    23     7     8 ar
    24     7    47 1
    25     8     9 ar
    26     8    48 1
    27     9    10 ar
    28     9    12 1
    29    10    11 ar
    30    10    49 1
    31    11    50 1
    32    12    39 1
    33    12    51 1
    34    12    52 1
    35    13    14 1
    36    13    53 1
    37    13    54 1
    38    14    15 ar
    39    14    19 ar
    40    15    16 ar
    41    15    55 1
    42    16    17 ar
    43    16    56 1
    44    17    18 ar
    45    17    57 1
    46    18    19 ar
    47    18    58 1
    48    19    59 1
    49    20    21 1
    50    20    60 1
    51    20    61 1
    52    21    22 ar
    53    21    26 ar
    54    22    23 ar
    55    22    62 1
    56    23    24 ar
    57    23    63 1
    58    24    25 ar
    59    24    64 1
    60    25    26 ar
    61    25    65 1
    62    26    66 1
    63    80    27 1
    64    80    35 1
    65    80    67 1
    66    80    68 1
    67    27    28 ar
    68    27    32 ar
    69    28    29 ar
    70    28    69 1
    71    29    30 ar
    72    29    70 1
    73    30    31 ar
    74    30    33 1
    75    31    32 ar
    76    31    71 1
    77    32    72 1
    78    33    40 1
    79    33    73 1
    80    33    74 1
    81    37    75 1
    82    38    76 1
    83    39    77 1
    84    40    78 1
@<TRIPOS>SUBSTRUCTURE
     1 DMP         1 TEMP              0 ****  ****    0 ROOT
