@<TRIPOS>MOLECULE
DMP
   80    84     1     0     0
SMALL
bcc


@<TRIPOS>ATOM
      1 C1           0.0000     0.0000     0.0000 c          1 DMP       0.643500
      2 C3           2.1440     0.0000     1.2070 c3         1 DMP      -0.012300
      3 C4           1.5870     0.9850     2.2430 c3         1 DMP       0.138100
      4 C5           0.5020     0.3520     3.1010 c3         1 DMP       0.138100
      5 C6          -0.2740    -0.7020     2.3290 c3         1 DMP      -0.012300
      6 C21          2.1440    -1.4090    -1.7970 ca         1 DMP      -0.115800
      7 C22          1.0860    -2.0180    -2.4450 ca         1 DMP      -0.090500
      8 C23          1.2120    -3.3150    -2.9050 ca         1 DMP      -0.088500
      9 C24          2.3960    -4.0030    -2.7180 ca         1 DMP      -0.105300
     10 C25          3.4530    -3.3960    -2.0650 ca         1 DMP      -0.088500
     11 C26          3.3270    -2.0980    -1.6080 ca         1 DMP      -0.090500
     12 C27          2.5340    -5.4170    -3.2200 c3         1 DMP       0.284200
     13 C30          2.1580    -1.4060     1.8070 c3         1 DMP      -0.021100
     14 C31          3.5770    -1.8030     2.1260 ca         1 DMP      -0.091300
     15 C32          4.1840    -1.3330     3.2750 ca         1 DMP      -0.106750
     16 C33          5.4860    -1.6970     3.5670 ca         1 DMP      -0.097750
     17 C34          6.1790    -2.5300     2.7100 ca         1 DMP      -0.102500
     18 C35          5.5720    -3.0010     1.5610 ca         1 DMP      -0.097750
     19 C36          4.2690    -2.6410     1.2710 ca         1 DMP      -0.106750
     20 C60         -1.4450    -1.1920     3.1830 c3         1 DMP      -0.021100
     21 C61         -0.9160    -1.8720     4.4190 ca         1 DMP      -0.091300
     22 C62         -0.7990    -1.1650     5.6010 ca         1 DMP      -0.106750
     23 C63         -0.3130    -1.7900     6.7340 ca         1 DMP      -0.097750
     24 C64          0.0550    -3.1210     6.6860 ca         1 DMP      -0.102500
     25 C65         -0.0630    -3.8280     5.5050 ca         1 DMP      -0.097750
     26 C66         -0.5530    -3.2050     4.3720 ca         1 DMP      -0.106750
     27 C71         -2.3240     1.7190     1.2600 ca         1 DMP      -0.115800
     28 C72         -2.2490     2.6200     0.2160 ca         1 DMP      -0.090500
     29 C73         -2.3640     3.9750     0.4620 ca         1 DMP      -0.088500
     30 C74         -2.5540     4.4290     1.7540 ca         1 DMP      -0.105300
     31 C75         -2.6310     3.5270     2.7990 ca         1 DMP      -0.088500
     32 C76         -2.5200     2.1720     2.5520 ca         1 DMP      -0.090500
     33 C77         -2.6780     5.9070     2.0230 c3         1 DMP       0.284200
     34 N2           1.3230     0.0000     0.0000 n          1 DMP      -0.139300
     35 N7          -0.7920    -0.1540     1.0760 n          1 DMP      -0.139300
     36 O1          -0.5520     0.1440    -1.0730 o          1 DMP      -0.764500
     37 O4           2.6530     1.4230     3.0880 oh         1 DMP      -0.579800
     38 O5          -0.4020     1.3690     3.5350 oh         1 DMP      -0.579800
     39 O27          2.9230    -5.3990    -4.5960 oh         1 DMP      -0.585800
     40 O77         -4.0510     6.2920     1.9400 oh         1 DMP      -0.585800
     41 H3           3.1550     0.2920     0.9470 h1         1 DMP       0.081700
     42 H4           1.1690     1.8390     1.7250 h1         1 DMP       0.036700
     43 H5           0.9620    -0.1120     3.9650 h1         1 DMP       0.036700
     44 H6           0.3840    -1.5340     2.1070 h1         1 DMP       0.081700
     45 H201         1.4320     0.5860    -2.0050 h1         1 DMP       0.043200
     46 H202         2.9910     0.4450    -1.1820 h1         1 DMP       0.043200
     47 H22          0.1580    -1.4790    -2.5920 ha         1 DMP       0.125000
     48 H23          0.3840    -3.7920    -3.4160 ha         1 DMP       0.105000
     49 H25          4.3810    -3.9350    -1.9170 ha         1 DMP       0.105000
     50 H26          4.1550    -1.6220    -1.0950 ha         1 DMP       0.125000
     51 H271         3.2870    -5.9340    -2.6390 h1         1 DMP      -0.015050
     52 H272         1.5850    -5.9290    -3.1200 h1         1 DMP      -0.015050
     53 H301         1.5680    -1.4170     2.7150 hc         1 DMP       0.050450
     54 H302         1.7380    -2.1070     1.0960 hc         1 DMP       0.050450
     55 H32          3.6400    -0.6800     3.9460 ha         1 DMP       0.116500
     56 H33          5.9620    -1.3280     4.4670 ha         1 DMP       0.102500
     57 H34          7.2000    -2.8140     2.9380 ha         1 DMP       0.102500
     58 H35          6.1150    -3.6560     0.8900 ha         1 DMP       0.102500
     59 H36          3.7920    -3.0100     0.3710 ha         1 DMP       0.116500
     60 H601        -2.0590    -0.3470     3.4710 hc         1 DMP       0.050450
     61 H602        -2.0400    -1.8930     2.6120 hc         1 DMP       0.050450
     62 H62         -1.0880    -0.1220     5.6390 ha         1 DMP       0.116500
     63 H63         -0.2210    -1.2350     7.6600 ha         1 DMP       0.102500
     64 H64          0.4370    -3.6100     7.5740 ha         1 DMP       0.102500
     65 H65          0.2230    -4.8720     5.4670 ha         1 DMP       0.102500
     66 H66         -0.6450    -3.7590     3.4460 ha         1 DMP       0.116500
     67 H701        -2.5780     0.0210     0.0010 h1         1 DMP       0.043200
     68 H702        -2.7740    -0.3090     1.7280 h1         1 DMP       0.043200
     69 H72         -2.1000     2.2650    -0.7970 ha         1 DMP       0.125000
     70 H73         -2.3050     4.6820    -0.3580 ha         1 DMP       0.105000
     71 H75         -2.7820     3.8820     3.8110 ha         1 DMP       0.105000
     72 H76         -2.5800     1.4650     3.3710 ha         1 DMP       0.125000
     73 H771        -2.1030     6.4570     1.2880 h1         1 DMP      -0.015050
     74 H772        -2.3000     6.1260     3.0140 h1         1 DMP      -0.015050
     75 HO4          2.7300     2.3610     3.0360 ho         1 DMP       0.391500
     76 HO5         -0.0050     1.8670     4.2310 ho         1 DMP       0.391500
     77 HO27         3.0290    -6.2840    -4.9030 ho         1 DMP       0.386000
     78 HO77        -4.1290     7.2170     2.1080 ho         1 DMP       0.386000
     79 C20          2.0070     0.0050    -1.2950 c3         1 DMP       0.105300
     80 C70         -2.2000     0.2410     0.9920 c3         1 DMP       0.105300
@<TRIPOS>BOND
     1     1    34 1   
     2     1    35 1   
     3     1    36 2   
     4     2     3 1   
     5     2    13 1   
     6     2    34 1   
     7     2    41 1   
     8     3     4 1   
     9     3    37 1   
    10     3    42 1   
    11     4     5 1   
    12     4    38 1   
    13     4    43 1   
    14     5    20 1   
    15     5    35 1   
    16     5    44 1   
    17     6     7 ar  
    18     6    11 ar  
    19     6    79 1   
    20     7     8 ar  
    21     7    47 1   
    22     8     9 ar  
    23     8    48 1   
    24     9    10 ar  
    25     9    12 1   
    26    10    11 ar  
    27    10    49 1   
    28    11    50 1   
    29    12    39 1   
    30    12    51 1   
    31    12    52 1   
    32    13    14 1   
    33    13    53 1   
    34    13    54 1   
    35    14    15 ar  
    36    14    19 ar  
    37    15    16 ar  
    38    15    55 1   
    39    16    17 ar  
    40    16    56 1   
    41    17    18 ar  
    42    17    57 1   
    43    18    19 ar  
    44    18    58 1   
    45    19    59 1   
    46    20    21 1   
    47    20    60 1   
    48    20    61 1   
    49    21    22 ar  
    50    21    26 ar  
    51    22    23 ar  
    52    22    62 1   
    53    23    24 ar  
    54    23    63 1   
    55    24    25 ar  
    56    24    64 1   
    57    25    26 ar  
    58    25    65 1   
    59    26    66 1   
    60    27    28 ar  
    61    27    32 ar  
    62    27    80 1   
    63    28    29 ar  
    64    28    69 1   
    65    29    30 ar  
    66    29    70 1   
    67    30    31 ar  
    68    30    33 1   
    69    31    32 ar  
    70    31    71 1   
    71    32    72 1   
    72    33    40 1   
    73    33    73 1   
    74    33    74 1   
    75    34    79 1   
    76    35    80 1   
    77    37    75 1   
    78    38    76 1   
    79    39    77 1   
    80    40    78 1   
    81    45    79 1   
    82    46    79 1   
    83    67    80 1   
    84    68    80 1   
@<TRIPOS>SUBSTRUCTURE
     1 DMP         1 TEMP              0 ****  ****    0 ROOT
