@<TRIPOS>MOLECULE
DMQ
   76    80     1     0     0
SMALL
bcc


@<TRIPOS>ATOM
      1 C1         -0.3710   -0.2120   -0.0170 c         1 DMQ      0.796500
      2 O1         -0.9210   -1.2000   -0.5670 o         1 DMQ     -0.681500
      3 N2          0.9880    0.1250   -0.3360 n         1 DMQ     -0.453800
      4 C2          1.4670   -0.4280   -1.5970 c3        1 DMQ      0.126300
      5 C3          1.9540    0.1130    0.7520 c3        1 DMQ      0.116700
      6 C4          1.9110    1.4540    1.5260 c3        1 DMQ      0.100600
      7 O4          3.0030    1.4330    2.4410 oh        1 DMQ     -0.606300
      8 C5          0.6150    1.6450    2.3200 c3        1 DMQ      0.100600
      9 O5          0.7240    2.8340    3.0980 oh        1 DMQ     -0.606300
     10 C6         -0.6420    1.8330    1.4320 c3        1 DMQ      0.116700
     11 C7         -2.4310    0.1330    1.2480 c3        1 DMQ      0.126300
     12 N7         -1.1160    0.5980    0.8460 n         1 DMQ     -0.453800
     13 C20         2.4380    0.4870   -2.2920 ca        1 DMQ     -0.068800
     14 C21         3.7680    0.0930   -2.4600 ca        1 DMQ     -0.166000
     15 C22         4.6490    0.9260   -3.1470 ca        1 DMQ     -0.095500
     16 C23         4.2250    2.1460   -3.6600 ca        1 DMQ     -0.188000
     17 C28         2.8810    2.5580   -3.4980 ca        1 DMQ      0.137600
     18 N29         2.4180    3.7380   -4.0910 nh        1 DMQ     -0.819700
     19 C29         1.9950    1.7090   -2.7950 ca        1 DMQ     -0.177500
     20 C31         1.8440   -1.0720    1.7320 c3        1 DMQ     -0.060100
     21 C32         2.4090   -2.3290    1.1710 ca        1 DMQ     -0.085300
     22 C33         1.6080   -3.1950    0.4160 ca        1 DMQ     -0.129250
     23 C34         2.1350   -4.3870   -0.0780 ca        1 DMQ     -0.130250
     24 C35         3.4640   -4.7250    0.1770 ca        1 DMQ     -0.132000
     25 C36         4.2670   -3.8650    0.9250 ca        1 DMQ     -0.130250
     26 C37         3.7430   -2.6730    1.4210 ca        1 DMQ     -0.129250
     27 C61        -0.4240    2.9780    0.4230 c3        1 DMQ     -0.060100
     28 C62        -1.7100    3.5080   -0.1050 ca        1 DMQ     -0.085300
     29 C63        -2.1080    3.2310   -1.4180 ca        1 DMQ     -0.129250
     30 C64        -3.3050    3.7480   -1.9130 ca        1 DMQ     -0.130250
     31 C65        -4.1120    4.5470   -1.1030 ca        1 DMQ     -0.132000
     32 C66        -3.7190    4.8290    0.2050 ca        1 DMQ     -0.130250
     33 C67        -2.5240    4.3130    0.7030 ca        1 DMQ     -0.129250
     34 C70        -2.4450   -0.6410    2.5390 ca        1 DMQ     -0.068800
     35 C71        -1.9110   -1.9280    2.5680 ca        1 DMQ     -0.177500
     36 C72        -1.9500   -2.6930    3.7570 ca        1 DMQ      0.137600
     37 N79        -1.5080   -4.0190    3.7670 nh        1 DMQ     -0.819700
     38 C77        -2.5220   -2.1120    4.9140 ca        1 DMQ     -0.188000
     39 C78        -3.0470   -0.8270    4.8660 ca        1 DMQ     -0.095500
     40 C79        -3.0120   -0.0830    3.6880 ca        1 DMQ     -0.166000
     41 H21A        0.5800   -0.5890   -2.2780 h1        1 DMQ      0.073950
     42 H22A        1.9490   -1.4370   -1.4270 h1        1 DMQ      0.073950
     43 H3          2.9860    0.0640    0.2810 h1        1 DMQ      0.083200
     44 H4          2.0420    2.3080    0.8030 h1        1 DMQ      0.063200
     45 HO4         3.2490    2.3530    2.5930 ho        1 DMQ      0.409000
     46 H5          0.4640    0.7640    3.0070 h1        1 DMQ      0.063200
     47 HO5         1.3060    2.6190    3.8370 ho        1 DMQ      0.409000
     48 H6         -1.4510    2.1900    2.1480 h1        1 DMQ      0.083200
     49 H71A       -2.8430   -0.5310    0.4300 h1        1 DMQ      0.073950
     50 H72        -3.1080    1.0310    1.3370 h1        1 DMQ      0.073950
     51 H21         4.1170   -0.8690   -2.0580 ha        1 DMQ      0.134000
     52 H22         5.6970    0.6170   -3.2850 ha        1 DMQ      0.130000
     53 H23         4.9370    2.7850   -4.2020 ha        1 DMQ      0.131000
     54 HN21        3.1260    4.4200   -4.2520 hn        1 DMQ      0.390550
     55 HN22        1.5980    4.1150   -3.6700 hn        1 DMQ      0.390550
     56 H29         0.9450    2.0030   -2.6460 ha        1 DMQ      0.143500
     57 H311        0.7710   -1.2420    2.0240 hc        1 DMQ      0.068700
     58 H312        2.4080   -0.7920    2.6640 hc        1 DMQ      0.068700
     59 H33         0.5600   -2.9220    0.2010 ha        1 DMQ      0.139500
     60 H34         1.4990   -5.0610   -0.6710 ha        1 DMQ      0.132500
     61 H35         3.8780   -5.6670   -0.2130 ha        1 DMQ      0.131000
     62 H36         5.3160   -4.1280    1.1260 ha        1 DMQ      0.132500
     63 H37         4.3790   -1.9970    2.0140 ha        1 DMQ      0.139500
     64 H611        0.1170    3.7960    0.9740 hc        1 DMQ      0.068700
     65 H612        0.2290    2.6460   -0.4260 hc        1 DMQ      0.068700
     66 H63        -1.4760    2.5980   -2.0590 ha        1 DMQ      0.139500
     67 H64        -3.6120    3.5220   -2.9450 ha        1 DMQ      0.132500
     68 H65        -5.0550    4.9540   -1.4950 ha        1 DMQ      0.131000
     69 H66        -4.3520    5.4600    0.8450 ha        1 DMQ      0.132500
     70 H67        -2.2120    4.5400    1.7340 ha        1 DMQ      0.139500
     71 H71        -1.4750   -2.3450    1.6450 ha        1 DMQ      0.143500
     72 HN71       -1.2310   -4.3550    4.6620 hn        1 DMQ      0.390550
     73 HN72       -0.8640   -4.2450    3.0420 hn        1 DMQ      0.390550
     74 H77        -2.5650   -2.6810    5.8550 ha        1 DMQ      0.131000
     75 H78        -3.4960   -0.3910    5.7720 ha        1 DMQ      0.130000
     76 H79        -3.4300    0.9330    3.6620 ha        1 DMQ      0.134000
@<TRIPOS>BOND
     1    1    2 2   
     2    1    3 1   
     3    1   12 1   
     4    3    4 1   
     5    3    5 1   
     6    4   13 1   
     7    4   41 1   
     8    4   42 1   
     9    5    6 1   
    10    5   20 1   
    11    5   43 1   
    12    6    7 1   
    13    6    8 1   
    14    6   44 1   
    15    7   45 1   
    16    8    9 1   
    17    8   10 1   
    18    8   46 1   
    19    9   47 1   
    20   10   12 1   
    21   10   27 1   
    22   10   48 1   
    23   11   12 1   
    24   11   34 1   
    25   11   49 1   
    26   11   50 1   
    27   13   14 ar  
    28   13   19 ar  
    29   14   15 ar  
    30   14   51 1   
    31   15   16 ar  
    32   15   52 1   
    33   16   17 ar  
    34   16   53 1   
    35   17   18 1   
    36   17   19 ar  
    37   18   54 1   
    38   18   55 1   
    39   19   56 1   
    40   20   21 1   
    41   20   57 1   
    42   20   58 1   
    43   21   22 ar  
    44   21   26 ar  
    45   22   23 ar  
    46   22   59 1   
    47   23   24 ar  
    48   23   60 1   
    49   24   25 ar  
    50   24   61 1   
    51   25   26 ar  
    52   25   62 1   
    53   26   63 1   
    54   27   28 1   
    55   27   64 1   
    56   27   65 1   
    57   28   29 ar  
    58   28   33 ar  
    59   29   30 ar  
    60   29   66 1   
    61   30   31 ar  
    62   30   67 1   
    63   31   32 ar  
    64   31   68 1   
    65   32   33 ar  
    66   32   69 1   
    67   33   70 1   
    68   34   35 ar  
    69   34   40 ar  
    70   35   36 ar  
    71   35   71 1   
    72   36   37 1   
    73   36   38 ar  
    74   37   72 1   
    75   37   73 1   
    76   38   39 ar  
    77   38   74 1   
    78   39   40 ar  
    79   39   75 1   
    80   40   76 1   
@<TRIPOS>SUBSTRUCTURE
     1 DMQ         1 TEMP              0 ****  ****    0 ROOT
