@<TRIPOS>MOLECULE
molecule
   13    12     1     0     0
SMALL
bcc


@<TRIPOS>ATOM
      1 C1           0.0000     0.0000     0.0000 c          1 DMR       0.867600
      2 O1A         -0.6050     0.0900     1.0410 o          1 DMR      -0.881800
      3 O1B         -0.6710    -0.0960    -1.1590 o          1 DMR      -0.881800
      4 C2           1.5070     0.0000     0.0000 c3         1 DMR       0.064100
      5 O2           1.9830     0.0000     1.3480 oh         1 DMR      -0.597800
      6 C3           2.0160     1.2500    -0.7210 c3         1 DMR      -0.156400
      7 C4           3.5180     1.1910    -0.8280 c          1 DMR       0.895600
      8 O4A          4.1880     2.1870    -1.4270 o          1 DMR      -0.889300
      9 O4B          4.1190     0.2450    -0.3750 o          1 DMR      -0.889300
     10 H21          1.8680    -0.8840    -0.5110 h1         1 DMR       0.021700
     11 HO21         1.9860    -0.8820     1.6800 ho         1 DMR       0.361000
     12 H31          1.7280     2.1320    -0.1610 hc         1 DMR       0.042200
     13 H32          1.5850     1.2960    -1.7130 hc         1 DMR       0.042200
@<TRIPOS>BOND
     1     1     2 1
     2     1     3 1
     3     1     4 1
     4     4     5 1
     5     4     6 1
     6     4    10 1
     7     5    11 1
     8     6     7 1
     9     6    12 1
    10     6    13 1
    11     7     8 1
    12     7     9 1
@<TRIPOS>SUBSTRUCTURE
     1 DMR         1 TEMP              0 ****  ****    0 ROOT
