@<TRIPOS>MOLECULE
DMR
   13    12     1     0     0
SMALL
bcc


@<TRIPOS>ATOM
      1 C1          0.0670   -0.2570   -0.0770 c         1 DMR      0.881600
      2 O1A        -0.6270    0.0650    0.9410 o         1 DMR     -0.876300
      3 O1B        -0.4560   -0.7020   -1.1390 o         1 DMR     -0.876300
      4 C2          1.6020   -0.1070    0.0330 c3        1 DMR      0.044100
      5 O2          1.9800   -0.1450    1.4080 oh        1 DMR     -0.640800
      6 C3          2.0710    1.1810   -0.6270 c3        1 DMR     -0.184400
      7 C4          3.5580    1.2390   -0.9810 c         1 DMR      0.909600
      8 O4A         4.1650    2.3470   -0.8200 o         1 DMR     -0.886800
      9 O4B         4.1470    0.2300   -1.4740 o         1 DMR     -0.886800
     10 H21         2.1230   -0.9830   -0.4380 h1        1 DMR      0.070700
     11 HO21        1.2760    0.3100    1.8910 ho        1 DMR      0.396000
     12 H31         1.8270    2.0470    0.0390 hc        1 DMR      0.025700
     13 H32         1.5000    1.3030   -1.5840 hc        1 DMR      0.025700
@<TRIPOS>BOND
     1    1    2 1   
     2    1    3 1   
     3    1    4 1   
     4    4    5 1   
     5    4    6 1   
     6    4   10 1   
     7    5   11 1   
     8    6    7 1   
     9    6   12 1   
    10    6   13 1   
    11    7    8 1   
    12    7    9 1   
@<TRIPOS>SUBSTRUCTURE
     1 DMR         1 TEMP              0 ****  ****    0 ROOT
