@<TRIPOS>MOLECULE
molecule
   10     9     1     0     0
SMALL
bcc


@<TRIPOS>ATOM
      1 S            0.0000     0.0000     0.0000 s4         1 DMS       0.262600
      2 O            1.4210     0.0000     0.0000 o          1 DMS      -0.508200
      3 C1          -0.6040     0.0000     1.7090 c3         1 DMS      -0.099300
      4 C2          -0.6040     1.6180    -0.5500 c3         1 DMS      -0.099300
      5 H11         -0.3080    -0.9210     2.1970 h1         1 DMS       0.074033
      6 H12         -0.1810     0.8430     2.2420 h1         1 DMS       0.074033
      7 H13         -1.6850     0.0780     1.7110 h1         1 DMS       0.074033
      8 H21         -0.1810     2.3940     0.0770 h1         1 DMS       0.074033
      9 H22         -0.3080     1.7830    -1.5790 h1         1 DMS       0.074033
     10 H23         -1.6850     1.6440    -0.4760 h1         1 DMS       0.074033
@<TRIPOS>BOND
     1     1     2 2
     2     1     3 1
     3     1     4 1
     4     3     5 1
     5     3     6 1
     6     3     7 1
     7     4     8 1
     8     4     9 1
     9     4    10 1
@<TRIPOS>SUBSTRUCTURE
     1 DMS         1 TEMP              0 ****  ****    0 ROOT
