@<TRIPOS>MOLECULE
DMS
   10     9     1     0     0
SMALL
bcc


@<TRIPOS>ATOM
      1 S          -0.0330    0.0010   -0.0000 s4        1 DMS      0.268600
      2 O           1.4520    0.1160    0.0810 o         1 DMS     -0.506200
      3 C1         -0.5960    0.0140    1.6450 c3        1 DMS     -0.130800
      4 C2         -0.5980    1.5630   -0.5140 c3        1 DMS     -0.130800
      5 H11        -0.3530   -0.9680    2.1160 h1        1 DMS      0.083367
      6 H12        -0.1260    0.8030    2.2760 h1        1 DMS      0.083367
      7 H13        -1.6990    0.1560    1.6840 h1        1 DMS      0.083367
      8 H21        -0.3560    1.6960   -1.5950 h1        1 DMS      0.083367
      9 H22        -1.7010    1.6450   -0.3920 h1        1 DMS      0.083367
     10 H23        -0.1280    2.4140    0.0300 h1        1 DMS      0.083367
@<TRIPOS>BOND
     1    1    2 2   
     2    1    3 1   
     3    1    4 1   
     4    3    5 1   
     5    3    6 1   
     6    3    7 1   
     7    4    8 1   
     8    4    9 1   
     9    4   10 1   
@<TRIPOS>SUBSTRUCTURE
     1 DMS         1 TEMP              0 ****  ****    0 ROOT
