@<TRIPOS>MOLECULE
DMV
   21    20     1     0     0
SMALL
bcc


@<TRIPOS>ATOM
      1 C1          0.1080    0.0960   -0.1840 c         1 DMV      0.891600
      2 C2          1.6510    0.1310   -0.0470 c3        1 DMV     -0.010900
      3 C3          2.0900    0.0640    1.4380 c3        1 DMV      0.158800
      4 C32         1.4610   -1.1460    2.1150 c3        1 DMV     -0.113100
      5 C4          3.6210    0.0150    1.5110 c3        1 DMV     -0.069400
      6 C5          4.1500   -0.0660    2.9180 c3        1 DMV     -0.083100
      7 O11        -0.5650    1.0000    0.3850 o         1 DMV     -0.834300
      8 O12        -0.3840   -0.8490   -0.8650 o         1 DMV     -0.834300
      9 O21         2.2660   -0.9180   -0.7730 oh        1 DMV     -0.638800
     10 O31         1.6940    1.2550    2.1130 oh        1 DMV     -0.644800
     11 H2          2.0380    1.0920   -0.4860 h1        1 DMV      0.046700
     12 H323        0.3510   -1.1090    1.9870 hc        1 DMV      0.036367
     13 H322        1.8490   -2.0800    1.6450 hc        1 DMV      0.036367
     14 H321        1.6980   -1.1490    3.2050 hc        1 DMV      0.036367
     15 H42         3.9630   -0.8680    0.9110 hc        1 DMV      0.043200
     16 H41         4.0190    0.9400    1.0170 hc        1 DMV      0.043200
     17 H53         3.6790    0.7250    3.5520 hc        1 DMV      0.021700
     18 H52         5.2580    0.0790    2.9270 hc        1 DMV      0.021700
     19 H51         3.9240   -1.0610    3.3720 hc        1 DMV      0.021700
     20 H21         1.5590   -1.5300   -1.0370 ho        1 DMV      0.425000
     21 H31         0.7770    1.4400    1.8450 ho        1 DMV      0.446000
@<TRIPOS>BOND
     1    1    2 1   
     2    1    7 1   
     3    1    8 1   
     4    2    3 1   
     5    2    9 1   
     6    2   11 1   
     7    3    4 1   
     8    3    5 1   
     9    3   10 1   
    10    4   12 1   
    11    4   13 1   
    12    4   14 1   
    13    5    6 1   
    14    5   15 1   
    15    5   16 1   
    16    6   17 1   
    17    6   18 1   
    18    6   19 1   
    19    9   20 1   
    20   10   21 1   
@<TRIPOS>SUBSTRUCTURE
     1 DMV         1 TEMP              0 ****  ****    0 ROOT
