@<TRIPOS>MOLECULE
molecule
   21    20     1     0     0
SMALL
bcc


@<TRIPOS>ATOM
      1 C1           0.0000     0.0000     0.0000 c          1 DMV       0.873600
      2 C2           1.5060     0.0000     0.0000 c3         1 DMV       0.012100
      3 C3           2.0170     0.0000     1.4410 c3         1 DMV       0.178800
      4 C32          1.5060    -1.2480     2.1630 c3         1 DMV      -0.065100
      5 C4           3.5450     0.0000     1.4420 c3         1 DMV      -0.116400
      6 C5           4.0570     0.0000     2.8840 c3         1 DMV      -0.091100
      7 O11         -0.6710     1.0070     0.5810 o          1 DMV      -0.835300
      8 O12         -0.6050    -0.9050    -0.5240 o          1 DMV      -0.835300
      9 O21          1.9820    -1.1670    -0.6740 oh         1 DMV      -0.610800
     10 O31          1.5400     1.1660     2.1150 oh         1 DMV      -0.569800
     11 H2           1.8670     0.8840    -0.5110 h1         1 DMV       0.009700
     12 H323         0.4550    -1.3880     1.9430 hc         1 DMV       0.041700
     13 H322         1.6390    -1.1280     3.2310 hc         1 DMV       0.041700
     14 H321         2.0640    -2.1140     1.8250 hc         1 DMV       0.041700
     15 H42          3.9060     0.8850     0.9310 hc         1 DMV       0.036200
     16 H41          3.9070    -0.8840     0.9310 hc         1 DMV       0.036200
     17 H53          5.0660     0.3920     2.9090 hc         1 DMV       0.026367
     18 H52          4.0530    -1.0130     3.2680 hc         1 DMV       0.026367
     19 H51          3.4130     0.6210     3.4950 hc         1 DMV       0.026367
     20 H21          2.0410    -0.9940    -1.5990 ho         1 DMV       0.386000
     21 H31          1.8710     1.9360     1.6830 ho         1 DMV       0.388000
@<TRIPOS>BOND
     1     1     2 1
     2     1     7 1
     3     1     8 1
     4     2     3 1
     5     2     9 1
     6     2    11 1
     7     3     4 1
     8     3     5 1
     9     3    10 1
    10     4    12 1
    11     4    13 1
    12     4    14 1
    13     5     6 1
    14     5    15 1
    15     5    16 1
    16     6    17 1
    17     6    18 1
    18     6    19 1
    19     9    20 1
    20    10    21 1
@<TRIPOS>SUBSTRUCTURE
     1 DMV         1 TEMP              0 ****  ****    0 ROOT
