@<TRIPOS>MOLECULE
DMW
   24    25     1     0     0
SMALL
bcc


@<TRIPOS>ATOM
      1 C5          0.0040   -0.0010   -0.0060 cc        1 DMW     -0.133400
      2 C5M        -0.6870    0.0040   -1.3160 c3        1 DMW     -0.069900
      3 C4          1.4860    0.0040   -0.0350 c         1 DMW      0.572900
      4 O4          2.1150    0.0120   -1.1020 o         1 DMW     -0.516100
      5 C3          2.1830   -0.0010    1.2690 ca        1 DMW     -0.132600
      6 C2          1.4610   -0.0100    2.4740 ca        1 DMW     -0.132600
      7 C1         -0.0180   -0.0140    2.4740 c         1 DMW      0.572900
      8 O1         -0.6620   -0.0220    3.5320 o         1 DMW     -0.516100
      9 C6         -0.6910   -0.0090    1.1540 cd        1 DMW     -0.133400
     10 C3A         3.5810    0.0030    1.2990 ca        1 DMW     -0.086000
     11 C3B         4.2580   -0.0010    2.5200 ca        1 DMW     -0.117000
     12 C3C         3.5420   -0.0100    3.7150 ca        1 DMW     -0.117000
     13 C3D         2.1470   -0.0140    3.6930 ca        1 DMW     -0.086000
     14 C6M        -2.1720   -0.0140    1.1610 c3        1 DMW     -0.069900
     15 H5M1       -1.3430    0.9080   -1.4020 hc        1 DMW      0.059700
     16 H5M2        0.0440    0.0110   -2.1630 hc        1 DMW      0.059700
     17 H5M3       -1.3370   -0.9030   -1.4120 hc        1 DMW      0.059700
     18 H3A         4.1390    0.0100    0.3480 ha        1 DMW      0.160000
     19 H3B         5.3590    0.0020    2.5340 ha        1 DMW      0.142000
     20 H3C         4.0740   -0.0140    4.6780 ha        1 DMW      0.142000
     21 H3D         1.5700   -0.0210    4.6330 ha        1 DMW      0.160000
     22 H6M1       -2.5570   -0.9180    0.6240 hc        1 DMW      0.059700
     23 H6M2       -2.5740   -0.0210    2.2050 hc        1 DMW      0.059700
     24 H6M3       -2.5620    0.8940    0.6340 hc        1 DMW      0.059700
@<TRIPOS>BOND
     1    1    2 1   
     2    1    3 1   
     3    1    9 2   
     4    2   15 1   
     5    2   16 1   
     6    2   17 1   
     7    3    4 2   
     8    3    5 1   
     9    5    6 ar  
    10    5   10 ar  
    11    6    7 1   
    12    6   13 ar  
    13    7    8 2   
    14    7    9 1   
    15    9   14 1   
    16   10   11 ar  
    17   10   18 1   
    18   11   12 ar  
    19   11   19 1   
    20   12   13 ar  
    21   12   20 1   
    22   13   21 1   
    23   14   22 1   
    24   14   23 1   
    25   14   24 1   
@<TRIPOS>SUBSTRUCTURE
     1 DMW         1 TEMP              0 ****  ****    0 ROOT
