@<TRIPOS>MOLECULE
molecule
   24    25     1     0     0
SMALL
bcc


@<TRIPOS>ATOM
      1 C5           0.0000     0.0000     0.0000 cc         1 DMW      -0.145400
      2 C5M         -0.7420     0.0050    -1.3120 c3         1 DMW      -0.053900
      3 C4           1.4750     0.0000     0.0000 c          1 DMW       0.575900
      4 O4           2.0860     0.0040    -1.0500 o          1 DMW      -0.509600
      5 C3           2.2080     0.0000     1.2840 ca         1 DMW      -0.136100
      6 C2           1.4860    -0.0100     2.4900 ca         1 DMW      -0.136100
      7 C1           0.0080    -0.0130     2.4480 c          1 DMW       0.575900
      8 O1          -0.6300    -0.0210     3.4820 o          1 DMW      -0.509600
      9 C6          -0.6880    -0.0090     1.1480 cd         1 DMW      -0.145400
     10 C3A          3.5970     0.0050     1.3120 ca         1 DMW      -0.080000
     11 C3B          4.2610    -0.0010     2.5290 ca         1 DMW      -0.116500
     12 C3C          3.5520    -0.0100     3.7130 ca         1 DMW      -0.116500
     13 C3D          2.1650    -0.0130     3.7010 ca         1 DMW      -0.080000
     14 C6M         -2.1940    -0.0130     1.1110 c3         1 DMW      -0.053900
     15 H5M1        -1.3590    -0.8830    -1.3820 hc         1 DMW       0.056367
     16 H5M2        -1.3700     0.8860    -1.3680 hc         1 DMW       0.056367
     17 H5M3        -0.0310     0.0160    -2.1290 hc         1 DMW       0.056367
     18 H3A          4.1600     0.0110     0.3860 ha         1 DMW       0.156000
     19 H3B          5.3440     0.0020     2.5510 ha         1 DMW       0.139000
     20 H3C          4.0820    -0.0140     4.6570 ha         1 DMW       0.139000
     21 H3D          1.6140    -0.0200     4.6340 ha         1 DMW       0.156000
     22 H6M1        -2.5800    -0.0220     2.1230 hc         1 DMW       0.056367
     23 H6M2        -2.5400    -0.8940     0.5850 hc         1 DMW       0.056367
     24 H6M3        -2.5450     0.8740     0.5990 hc         1 DMW       0.056367
@<TRIPOS>BOND
     1     1     2 1
     2     1     3 1
     3     1     9 2
     4     2    15 1
     5     2    16 1
     6     2    17 1
     7     3     4 2
     8     3     5 1
     9     5     6 ar
    10     5    10 ar
    11     6     7 1
    12     6    13 ar
    13     7     8 2
    14     7     9 1
    15     9    14 1
    16    10    11 ar
    17    10    18 1
    18    11    12 ar
    19    11    19 1
    20    12    13 ar
    21    12    20 1
    22    13    21 1
    23    14    22 1
    24    14    23 1
    25    14    24 1
@<TRIPOS>SUBSTRUCTURE
     1 DMW         1 TEMP              0 ****  ****    0 ROOT
