@<TRIPOS>MOLECULE
molecule
   36    36     1     0     0
SMALL
bcc


@<TRIPOS>ATOM
      1 C1           0.0000     0.0000     0.0000 ca         1 DMX      -0.093000
      2 C2           1.3830     0.0000     0.0000 ca         1 DMX      -0.118000
      3 C3           2.0730     0.0000     1.1980 ca         1 DMX      -0.110000
      4 C4           1.3810    -0.0100     2.3940 ca         1 DMX      -0.163300
      5 C5          -0.0020    -0.0100     2.3940 ca         1 DMX      -0.110000
      6 C6          -0.6920    -0.0050     1.1960 ca         1 DMX      -0.118000
      7 C7           2.1330    -0.0150     3.7000 c3         1 DMX       0.164100
      8 N8           2.3780    -1.4020     4.1190 n4         1 DMX      -0.571800
      9 C9           3.1110    -1.4070     5.3930 c3         1 DMX       0.100800
     10 C10          4.1300    -2.8570     7.1540 c3         1 DMX      -0.254600
     11 S11          4.4310    -4.5690     7.6710 s6         1 DMX       1.237800
     12 C12          3.1720    -2.0910     3.0930 c3         1 DMX       0.088600
     13 C13          1.0940    -2.0950     4.2920 c3         1 DMX       0.088600
     14 O14          3.1570    -5.2510     7.8400 o          1 DMX      -0.683867
     15 O15          5.2180    -5.2470     6.6530 o          1 DMX      -0.683867
     16 O16          5.1580    -4.5690     8.9310 o          1 DMX      -0.683867
     17 C17          3.3660    -2.8510     5.8280 c3         1 DMX      -0.070400
     18 H1          -0.5410     0.0020    -0.9380 ha         1 DMX       0.150000
     19 H2           1.9250     0.0060    -0.9380 ha         1 DMX       0.150000
     20 H3           3.1560    -0.0000     1.1980 ha         1 DMX       0.137000
     21 H5          -0.5440    -0.0160     3.3310 ha         1 DMX       0.137000
     22 H6          -1.7750    -0.0050     1.1950 ha         1 DMX       0.150000
     23 H71          1.5470     0.4930     4.4560 hx         1 DMX       0.097700
     24 H72          3.0800     0.4960     3.5730 hx         1 DMX       0.097700
     25 H91          2.5250    -0.9000     6.1490 hx         1 DMX       0.091700
     26 H92          4.0580    -0.8960     5.2660 hx         1 DMX       0.091700
     27 H101         3.5440    -2.3490     7.9100 h1         1 DMX       0.076700
     28 H102         5.0770    -2.3450     7.0270 h1         1 DMX       0.076700
     29 H121         3.3450    -3.1160     3.3980 hx         1 DMX       0.097700
     30 H122         4.1220    -1.5850     2.9730 hx         1 DMX       0.097700
     31 H123         2.6350    -2.0800     2.1530 hx         1 DMX       0.097700
     32 H131         1.2730    -3.1180     4.5980 hx         1 DMX       0.097700
     33 H132         0.5090    -1.5880     5.0500 hx         1 DMX       0.097700
     34 H133         0.5510    -2.0890     3.3540 hx         1 DMX       0.097700
     35 H171         2.4200    -3.3630     5.9550 hc         1 DMX       0.069700
     36 H172         3.9520    -3.3590     5.0720 hc         1 DMX       0.069700
@<TRIPOS>BOND
     1     1     2 ar
     2     1     6 ar
     3     1    18 1
     4     2     3 ar
     5     2    19 1
     6     3     4 ar
     7     3    20 1
     8     4     5 ar
     9     4     7 1
    10     5     6 ar
    11     5    21 1
    12     6    22 1
    13     7     8 1
    14     7    23 1
    15     7    24 1
    16     8     9 1
    17     8    12 1
    18     8    13 1
    19     9    17 1
    20     9    25 1
    21     9    26 1
    22    10    11 1
    23    10    17 1
    24    10    27 1
    25    10    28 1
    26    11    14 1
    27    11    15 1
    28    11    16 1
    29    12    29 1
    30    12    30 1
    31    12    31 1
    32    13    32 1
    33    13    33 1
    34    13    34 1
    35    17    35 1
    36    17    36 1
@<TRIPOS>SUBSTRUCTURE
     1 DMX         1 TEMP              0 ****  ****    0 ROOT
