@<TRIPOS>MOLECULE
DMY
   63    65     1     0     0
SMALL
bcc


@<TRIPOS>ATOM
      1 C1           0.0000     0.0000     0.0000 c          1 DMY       0.601900
      2 O1           1.2130     0.0000     0.0000 o          1 DMY      -0.655100
      3 N1          -0.6740     0.0000     1.1670 ns         1 DMY      -0.009100
      4 C2           0.0300     0.0010     2.3850 cc         1 DMY      -0.167400
      5 C3           1.4230     0.0020     2.5350 cc         1 DMY      -0.138000
      6 C4           1.6870     0.0080     3.8880 cd         1 DMY      -0.398900
      7 N2           0.4790     0.0020     4.5480 na         1 DMY       0.532900
      8 C5          -0.5200     0.0020     3.6280 cd         1 DMY      -0.353300
      9 C6           0.3010     0.0050     6.0020 c3         1 DMY      -0.033400
     10 C7           3.0140     0.0130     4.5120 c          1 DMY       0.632700
     11 O2           3.1190    -0.0800     5.7210 o          1 DMY      -0.692100
     12 N3           4.1180     0.1180     3.7470 ns         1 DMY       0.033900
     13 C8           5.3920     0.0050     4.3320 cc         1 DMY      -0.159400
     14 C9           5.6620    -0.2080     5.6920 cc         1 DMY      -0.135000
     15 C10          7.0330    -0.2570     5.8300 cd         1 DMY      -0.405900
     16 N4           7.5860    -0.0670     4.5840 na         1 DMY       0.527900
     17 C11          6.5830     0.0920     3.6830 cd         1 DMY      -0.349300
     18 C12          9.0180    -0.0390     4.2810 c3         1 DMY      -0.030400
     19 C13          7.7700    -0.4680     7.0800 c          1 DMY       0.639700
     20 O3           8.9850    -0.3940     7.0910 o          1 DMY      -0.707100
     21 N5           7.1020    -0.7410     8.2170 ns         1 DMY       0.035900
     22 C14          7.7960    -0.8290     9.4370 cc         1 DMY      -0.157400
     23 C15          9.1770    -0.6610     9.6160 cc         1 DMY      -0.140000
     24 C16          9.4340    -0.8260    10.9610 cd         1 DMY      -0.414900
     25 N6           8.2380    -1.0970    11.5850 na         1 DMY       0.539900
     26 C17          7.2500    -1.0970    10.6530 cd         1 DMY      -0.338300
     27 C18          8.0600    -1.3460    13.0180 c3         1 DMY      -0.036400
     28 C19         10.7470    -0.7340    11.6080 c          1 DMY       0.664700
     29 O4          10.8610    -0.9930    12.7910 o          1 DMY      -0.672100
     30 N7          11.8270    -0.3630    10.8930 ns         1 DMY      -0.205900
     31 C20         13.1550    -0.3790    11.5100 c3         1 DMY       0.054000
     32 C21         14.1960     0.0840    10.4900 c3         1 DMY      -0.089700
     33 C22         15.5630     0.0680    11.1250 c2         1 DMY       0.112200
     34 N8          15.7000    -0.3020    12.3560 n2         1 DMY      -0.459100
     35 N9          16.6610     0.4460    10.3970 nz         1 DMY       0.196400
     36 H1          -0.5420     0.0030    -0.9380 h5         1 DMY      -0.016800
     37 HN1         -1.6740    -0.0400     1.1680 hn         1 DMY       0.161500
     38 H3           2.1560     0.0040     1.7380 ha         1 DMY       0.174000
     39 H5          -1.5810    -0.0030     3.8480 h4         1 DMY       0.150000
     40 H61         -0.7560     0.0350     6.2360 h1         1 DMY       0.031700
     41 H62          0.7900     0.8740     6.4250 h1         1 DMY       0.031700
     42 H63          0.7370    -0.8940     6.4210 h1         1 DMY       0.031700
     43 HN3          4.0320     0.2930     2.7660 hn         1 DMY       0.174500
     44 H9           4.9310    -0.3210     6.4840 ha         1 DMY       0.174000
     45 H11          6.7100     0.2600     2.6200 h4         1 DMY       0.153000
     46 H121         9.1580     0.0940     3.2150 h1         1 DMY       0.028700
     47 H122         9.4840     0.7820     4.8120 h1         1 DMY       0.028700
     48 H123         9.4710    -0.9730     4.5900 h1         1 DMY       0.028700
     49 HN5          6.1120    -0.8850     8.1940 hn         1 DMY       0.177500
     50 H15          9.9030    -0.4360     8.8440 ha         1 DMY       0.168000
     51 H17          6.2000    -1.2810    10.8460 h4         1 DMY       0.157000
     52 H181         8.4230    -0.4940    13.5810 h1         1 DMY       0.035033
     53 H182         7.0090    -1.4980    13.2310 h1         1 DMY       0.035033
     54 H183         8.6170    -2.2300    13.3030 h1         1 DMY       0.035033
     55 HN7         11.7170    -0.0440     9.9510 hn         1 DMY       0.195500
     56 H201        13.1640     0.2870    12.3640 h1         1 DMY       0.030700
     57 H202        13.3900    -1.3860    11.8350 h1         1 DMY       0.030700
     58 H211        14.1870    -0.5830     9.6360 hc         1 DMY       0.052200
     59 H212        13.9610     1.0900    10.1650 hc         1 DMY       0.052200
     60 HN8         14.9000    -0.5780    12.8890 hn         1 DMY       0.396400
     61 HN91        16.5440     1.3880    10.0800 hn         1 DMY       0.220133
     62 HN92        17.4790     0.3870    10.9710 hn         1 DMY       0.220133
     63 H93         16.7640    -0.1610     9.6080 hn         1 DMY       0.220133
@<TRIPOS>BOND
     1     1     2 2   
     2     1     3 1   
     3     1    36 1   
     4     3     4 1   
     5     3    37 1   
     6     4     5 1   
     7     4     8 2   
     8     5     6 2   
     9     5    38 1   
    10     6     7 1   
    11     6    10 1   
    12     7     8 1   
    13     7     9 1   
    14     8    39 1   
    15     9    40 1   
    16     9    41 1   
    17     9    42 1   
    18    10    11 2   
    19    10    12 1   
    20    12    13 1   
    21    12    43 1   
    22    13    14 1   
    23    13    17 2   
    24    14    15 2   
    25    14    44 1   
    26    15    16 1   
    27    15    19 1   
    28    16    17 1   
    29    16    18 1   
    30    17    45 1   
    31    18    46 1   
    32    18    47 1   
    33    18    48 1   
    34    19    20 2   
    35    19    21 1   
    36    21    22 1   
    37    21    49 1   
    38    22    23 1   
    39    22    26 2   
    40    23    24 2   
    41    23    50 1   
    42    24    25 1   
    43    24    28 1   
    44    25    26 1   
    45    25    27 1   
    46    26    51 1   
    47    27    52 1   
    48    27    53 1   
    49    27    54 1   
    50    28    29 2   
    51    28    30 1   
    52    30    31 1   
    53    30    55 1   
    54    31    32 1   
    55    31    56 1   
    56    31    57 1   
    57    32    33 1   
    58    32    58 1   
    59    32    59 1   
    60    33    34 2   
    61    33    35 1   
    62    34    60 1   
    63    35    61 1   
    64    35    62 1   
    65    35    63 1   
@<TRIPOS>SUBSTRUCTURE
     1 DMY         1 TEMP              0 ****  ****    0 ROOT
