@<TRIPOS>MOLECULE
DN1
   68    70     1     0     0
SMALL
bcc


@<TRIPOS>ATOM
      1 N1           0.0000     0.0000     0.0000 nu         1 DN1      -0.473600
      2 C2           1.4640     0.0000     0.0000 c3         1 DN1       0.043200
      3 C1           1.9880     1.2370    -0.6830 c          1 DN1       0.596100
      4 O2           3.0120     1.7570    -0.2950 o          1 DN1      -0.708100
      5 N3           1.3160     1.7660    -1.7260 ns         1 DN1      -0.141900
      6 C4           1.7420     3.0450    -2.2970 c3         1 DN1      -0.066300
      7 C5           1.2010     4.1920    -1.4440 c3         1 DN1      -0.039400
      8 C6           1.1100     6.6760    -1.1910 c3         1 DN1       0.003400
      9 C7           3.2580     5.5610    -1.8100 c3         1 DN1       0.003400
     10 C8           1.7370     5.5230    -1.9760 c3         1 DN1      -0.087700
     11 C9           1.2120     3.1680    -3.7020 c          1 DN1       0.579100
     12 O10          0.3820     2.3840    -4.1070 o          1 DN1      -0.650100
     13 N11          1.6590     4.1520    -4.5070 ns         1 DN1      -0.216900
     14 C12          1.2440     4.1950    -5.9120 c3         1 DN1       0.039700
     15 C13          2.2340     3.3990    -6.7610 c3         1 DN1      -0.103400
     16 C14          2.2630     1.9460    -6.2820 c3         1 DN1       0.373900
     17 F15          3.1690     1.2170    -7.0600 f          1 DN1      -0.240800
     18 F16          2.6610     1.9050    -4.9420 f          1 DN1      -0.240800
     19 C17          1.2140     5.6480    -6.3910 c3         1 DN1       0.070100
     20 C18          0.7860     5.6920    -7.8350 c          1 DN1       0.949600
     21 O19         -0.4130     5.2080    -8.1950 o          1 DN1      -0.884800
     22 O20          1.5220     6.1630    -8.6700 o          1 DN1      -0.884800
     23 O21          2.5170     6.2180    -6.2620 oh         1 DN1      -0.609800
     24 C22          1.9980    -1.2540    -0.6950 c3         1 DN1       0.026900
     25 C23          1.8670     0.0000     1.4840 c3         1 DN1       0.033900
     26 C24         -0.4800    -0.0000     1.3100 ca         1 DN1       0.081600
     27 C25          0.5540    -0.0000     2.2330 ca         1 DN1      -0.168300
     28 C26         -1.7980    -0.0010     1.7700 ca         1 DN1      -0.109000
     29 C27          0.2830    -0.0020     3.5880 ca         1 DN1      -0.068000
     30 C28         -1.0240    -0.0020     4.0360 ca         1 DN1      -0.171000
     31 C29         -2.0630    -0.0020     3.1240 ca         1 DN1      -0.093000
     32 C30          1.5640    -1.2500    -2.1380 cc         1 DN1      -0.179300
     33 C31          2.3350    -0.6730    -3.1160 cc         1 DN1      -0.155000
     34 C32          1.9010    -0.6970    -4.4030 cd         1 DN1      -0.033100
     35 S33          0.3870    -1.5330    -4.2950 ss         1 DN1      -0.272800
     36 C34          0.3730    -1.8360    -2.5380 cd         1 DN1       0.061300
     37 C35         -0.6370    -2.5190    -1.7260 c          1 DN1       1.016200
     38 O36         -0.4760    -2.6340    -0.5260 o          1 DN1      -0.864300
     39 O37         -1.7460    -3.0190    -2.3100 o          1 DN1      -0.864300
     40 H1          -0.3340    -0.8140    -0.4780 hn         1 DN1       0.367800
     41 H3           0.4940     1.3130    -2.0730 hn         1 DN1       0.224500
     42 H4           2.8250     3.0890    -2.3150 h1         1 DN1       0.067700
     43 H5C1         1.5190     4.0600    -0.4170 hc         1 DN1       0.031200
     44 H5C2         0.1180     4.1960    -1.4890 hc         1 DN1       0.031200
     45 H6C1         1.5110     7.6170    -1.5490 hc         1 DN1       0.001700
     46 H6C2         1.3390     6.5630    -0.1390 hc         1 DN1       0.001700
     47 H6C3         0.0360     6.6660    -1.3300 hc         1 DN1       0.001700
     48 H7C1         3.6270     6.5430    -2.0810 hc         1 DN1       0.001700
     49 H7C2         3.7110     4.8150    -2.4520 hc         1 DN1       0.001700
     50 H7C3         3.5140     5.3520    -0.7780 hc         1 DN1       0.001700
     51 H8           1.4860     5.6200    -3.0250 hc         1 DN1       0.053700
     52 H11          2.3210     4.8190    -4.1610 hn         1 DN1       0.198500
     53 H12          0.2550     3.7630    -6.0090 h1         1 DN1       0.090700
     54 H13          3.2220     3.8310    -6.6640 hc         1 DN1       0.062200
     55 H13D         1.9260     3.4300    -7.7990 hc         1 DN1       0.062200
     56 H14          1.2750     1.5130    -6.3790 h2         1 DN1       0.064700
     57 H17          0.5120     6.2130    -5.7880 h1         1 DN1       0.000700
     58 H21          2.4680     7.1490    -6.4050 ho         1 DN1       0.389000
     59 H221         1.6050    -2.1350    -0.2020 hc         1 DN1       0.044700
     60 H222         3.0800    -1.2630    -0.6420 hc         1 DN1       0.044700
     61 H231         2.4180     0.9040     1.7120 hc         1 DN1       0.035700
     62 H232         2.4190    -0.9040     1.7120 hc         1 DN1       0.035700
     63 H26         -2.6170     0.0000     1.0600 ha         1 DN1       0.113000
     64 H27          1.0980    -0.0020     4.3020 ha         1 DN1       0.083000
     65 H28         -1.2340    -0.0030     5.0980 ha         1 DN1       0.084000
     66 H29         -3.0880    -0.0020     3.4730 ha         1 DN1       0.085000
     67 H31          3.2790    -0.2040    -2.8640 ha         1 DN1       0.109000
     68 H32          2.3830    -0.2890    -5.2830 h4         1 DN1       0.160000
@<TRIPOS>BOND
     1     1     2 1   
     2     1    26 1   
     3     1    40 1   
     4     2     3 1   
     5     2    24 1   
     6     2    25 1   
     7     3     4 2   
     8     3     5 1   
     9     5     6 1   
    10     5    41 1   
    11     6     7 1   
    12     6    11 1   
    13     6    42 1   
    14     7    10 1   
    15     7    43 1   
    16     7    44 1   
    17     8    10 1   
    18     8    45 1   
    19     8    46 1   
    20     8    47 1   
    21     9    10 1   
    22     9    48 1   
    23     9    49 1   
    24     9    50 1   
    25    10    51 1   
    26    11    12 2   
    27    11    13 1   
    28    13    14 1   
    29    13    52 1   
    30    14    15 1   
    31    14    19 1   
    32    14    53 1   
    33    15    16 1   
    34    15    54 1   
    35    15    55 1   
    36    16    17 1   
    37    16    18 1   
    38    16    56 1   
    39    19    20 1   
    40    19    23 1   
    41    19    57 1   
    42    20    21 1   
    43    20    22 1   
    44    23    58 1   
    45    24    32 1   
    46    24    59 1   
    47    24    60 1   
    48    25    27 1   
    49    25    61 1   
    50    25    62 1   
    51    26    27 ar  
    52    26    28 ar  
    53    27    29 ar  
    54    28    31 ar  
    55    28    63 1   
    56    29    30 ar  
    57    29    64 1   
    58    30    31 ar  
    59    30    65 1   
    60    31    66 1   
    61    32    33 1   
    62    32    36 2   
    63    33    34 2   
    64    33    67 1   
    65    34    35 1   
    66    34    68 1   
    67    35    36 1   
    68    36    37 1   
    69    37    38 1   
    70    37    39 1   
@<TRIPOS>SUBSTRUCTURE
     1 DN1         1 TEMP              0 ****  ****    0 ROOT
