@<TRIPOS>MOLECULE
molecule
   68    70     1     0     0
SMALL
bcc


@<TRIPOS>ATOM
      1 N1           0.0000     0.0000     0.0000 nu         1 DN2      -0.622600
      2 C2           1.4640     0.0000     0.0000 c3         1 DN2       0.122200
      3 C1           1.9870     1.2370    -0.6840 c          1 DN2       0.651100
      4 O2           2.9560     1.8130    -0.2370 o          1 DN2      -0.651100
      5 N3           1.3780     1.7020    -1.7930 ns         1 DN2      -0.550900
      6 C4           1.8050     2.9710    -2.3840 c3         1 DN2       0.037700
      7 C5           2.8530     2.7040    -3.4660 c3         1 DN2      -0.087400
      8 C6           5.0860     1.6770    -3.9160 c3         1 DN2      -0.087100
      9 C7           4.7860     3.2120    -1.9670 c3         1 DN2      -0.087100
     10 C8           4.1180     2.1330    -2.8220 c3         1 DN2      -0.075700
     11 C9           0.6170     3.6650    -2.9960 c          1 DN2       0.639100
     12 O10         -0.4790     3.1490    -2.9430 o          1 DN2      -0.609100
     13 N11          0.7710     4.8590    -3.6020 ns         1 DN2      -0.554900
     14 C12         -0.3850     5.5340    -4.1960 c3         1 DN2       0.136700
     15 C13         -1.0410     6.4370    -3.1510 c3         1 DN2      -0.157400
     16 C14         -1.5010     5.5910    -1.9620 c3         1 DN2       0.392900
     17 F15         -2.1010     6.4170    -1.0060 f          1 DN2      -0.249800
     18 F16         -2.4240     4.6350    -2.3980 f          1 DN2      -0.249800
     19 C17          0.0750     6.3790    -5.3860 c3         1 DN2       0.024100
     20 C18          0.7210     5.4910    -6.4150 c          1 DN2       0.874600
     21 O19          0.0190     4.4940    -6.9780 o          1 DN2      -0.829800
     22 O20          1.8710     5.6730    -6.7340 o          1 DN2      -0.829800
     23 O21          1.0170     7.3560    -4.9400 oh         1 DN2      -0.618800
     24 C22          1.9970    -1.2550    -0.6930 c3         1 DN2       0.015900
     25 C23          1.8670     0.0000     1.4840 c3         1 DN2      -0.034100
     26 C24         -0.4800    -0.0000     1.3100 ca         1 DN2       0.155600
     27 C25          0.5530     0.0010     2.2330 ca         1 DN2      -0.155300
     28 C26         -1.7990     0.0010     1.7700 ca         1 DN2      -0.124000
     29 C27          0.2830     0.0010     3.5880 ca         1 DN2      -0.099000
     30 C28         -1.0250     0.0010     4.0350 ca         1 DN2      -0.184000
     31 C29         -2.0640     0.0010     3.1230 ca         1 DN2      -0.117000
     32 C30          1.4290    -1.3390    -2.0860 cc         1 DN2      -0.188300
     33 C31          2.0960    -0.8140    -3.1640 cc         1 DN2      -0.184000
     34 C32          1.5410    -0.9150    -4.4010 cd         1 DN2      -0.132100
     35 S33          0.0550    -1.7560    -4.1000 ss         1 DN2      -0.165800
     36 C34          0.2120    -1.9560    -2.3350 cd         1 DN2       0.056300
     37 C35         -0.7070    -2.5980    -1.3930 c          1 DN2       0.916200
     38 O36         -1.8590    -3.1390    -1.8380 o          1 DN2      -0.823800
     39 O37         -0.4310    -2.6420    -0.2090 o          1 DN2      -0.823800
     40 H1          -0.3340     0.8140    -0.4780 hn         1 DN2       0.380800
     41 H3           0.6090     1.1990    -2.1890 hn         1 DN2       0.359500
     42 H4           2.2340     3.6020    -1.6140 h1         1 DN2       0.078700
     43 H5C1         3.0930     3.6300    -3.9730 hc         1 DN2       0.068700
     44 H5C2         2.4590     1.9920    -4.1820 hc         1 DN2       0.068700
     45 H6C1         5.5360     2.5450    -4.3840 hc         1 DN2       0.028700
     46 H6C2         5.8610     1.0600    -3.4780 hc         1 DN2       0.028700
     47 H6C3         4.5460     1.1050    -4.6610 hc         1 DN2       0.028700
     48 H7C1         4.9910     4.0820    -2.5790 hc         1 DN2       0.028700
     49 H7C2         4.1260     3.4890    -1.1550 hc         1 DN2       0.028700
     50 H7C3         5.7150     2.8280    -1.5630 hc         1 DN2       0.028700
     51 H8           3.8560     1.2880    -2.1970 hc         1 DN2       0.070700
     52 H11          1.6660     5.3080    -3.6010 hn         1 DN2       0.330500
     53 H12         -1.1000     4.7940    -4.5340 h1         1 DN2       0.122700
     54 H131        -1.8960     6.9360    -3.5910 hc         1 DN2       0.058700
     55 H132        -0.3260     7.1770    -2.8130 hc         1 DN2       0.058700
     56 H14         -0.6460     5.0920    -1.5210 h2         1 DN2       0.071700
     57 H17         -0.7800     6.8780    -5.8260 h1         1 DN2       0.027700
     58 H21          0.8740     8.1650    -5.4030 ho         1 DN2       0.384000
     59 H221         3.0780    -1.2060    -0.7460 hc         1 DN2       0.063700
     60 H222         1.7020    -2.1320    -0.1290 hc         1 DN2       0.063700
     61 H231         2.4170    -0.9050     1.7130 hc         1 DN2       0.065700
     62 H232         2.4190     0.9040     1.7130 hc         1 DN2       0.065700
     63 H26         -2.6180     0.0010     1.0610 ha         1 DN2       0.145000
     64 H27          1.0980     0.0010     4.3020 ha         1 DN2       0.106000
     65 H28         -1.2360     0.0010     5.0980 ha         1 DN2       0.103000
     66 H29         -3.0890     0.0000     3.4720 ha         1 DN2       0.112000
     67 H31          3.0530    -0.3240    -3.0320 ha         1 DN2       0.122000
     68 H32          1.9320    -0.5560    -5.3450 h4         1 DN2       0.170000
@<TRIPOS>BOND
     1     1     2 1
     2     1    26 1
     3     1    40 1
     4     2     3 1
     5     2    24 1
     6     2    25 1
     7     3     4 2
     8     3     5 1
     9     5     6 1
    10     5    41 1
    11     6     7 1
    12     6    11 1
    13     6    42 1
    14     7    10 1
    15     7    43 1
    16     7    44 1
    17     8    10 1
    18     8    45 1
    19     8    46 1
    20     8    47 1
    21     9    10 1
    22     9    48 1
    23     9    49 1
    24     9    50 1
    25    10    51 1
    26    11    12 2
    27    11    13 1
    28    13    14 1
    29    13    52 1
    30    14    15 1
    31    14    19 1
    32    14    53 1
    33    15    16 1
    34    15    54 1
    35    15    55 1
    36    16    17 1
    37    16    18 1
    38    16    56 1
    39    19    20 1
    40    19    23 1
    41    19    57 1
    42    20    21 1
    43    20    22 1
    44    23    58 1
    45    24    32 1
    46    24    59 1
    47    24    60 1
    48    25    27 1
    49    25    61 1
    50    25    62 1
    51    26    27 ar
    52    26    28 ar
    53    27    29 ar
    54    28    31 ar
    55    28    63 1
    56    29    30 ar
    57    29    64 1
    58    30    31 ar
    59    30    65 1
    60    31    66 1
    61    32    33 1
    62    32    36 2
    63    33    34 2
    64    33    67 1
    65    34    35 1
    66    34    68 1
    67    35    36 1
    68    36    37 1
    69    37    38 1
    70    37    39 1
@<TRIPOS>SUBSTRUCTURE
     1 DN2         1 TEMP              0 ****  ****    0 ROOT
