@<TRIPOS>MOLECULE
molecule
   42    44     1     0     0
SMALL
bcc


@<TRIPOS>ATOM
      1 O14          0.0000     0.0000     0.0000 o          1 DN3      -0.585100
      2 C13          1.2150     0.0000     0.0000 c          1 DN3       0.677700
      3 C15          1.9550     0.0000     1.2800 ca         1 DN3      -0.153600
      4 C16          3.3500     0.0060     1.2840 ca         1 DN3      -0.106000
      5 C17          4.0340     0.0110     2.4810 ca         1 DN3      -0.138000
      6 C18          3.3390     0.0100     3.6770 ca         1 DN3      -0.080000
      7 C19          1.9550     0.0040     3.6820 ca         1 DN3      -0.087300
      8 C21          1.2070     0.0020     4.9900 c3         1 DN3       0.207100
      9 N22          0.9580     1.3870     5.4130 n3         1 DN3      -0.729600
     10 C23          0.0400     2.0640     4.4860 c3         1 DN3       0.149100
     11 C24          0.4450     1.4330     6.7880 c3         1 DN3       0.149100
     12 C20          1.2600    -0.0010     2.4900 ca         1 DN3      -0.060000
     13 N12          1.8890    -0.0060    -1.1680 ns         1 DN3      -0.479100
     14 C10          1.1930    -0.1090    -2.3770 ca         1 DN3       0.057600
     15 C11         -0.0480     0.4940    -2.5160 ca         1 DN3      -0.076000
     16 C6          -0.7370     0.3880    -3.7230 ca         1 DN3      -0.127500
     17 C7          -0.1750    -0.3250    -4.7820 ca         1 DN3      -0.133000
     18 C8           1.0600    -0.9230    -4.6340 ca         1 DN3      -0.111000
     19 C9           1.7470    -0.8120    -3.4390 ca         1 DN3      -0.143000
     20 C2          -2.0620     1.0300    -3.8800 cc         1 DN3       0.478000
     21 N1          -2.8440     1.0050    -4.9870 na         1 DN3      -0.191400
     22 N5          -3.9880     1.7470    -4.6480 nc         1 DN3      -0.214800
     23 N4          -3.8290     2.1450    -3.4320 nd         1 DN3      -0.005000
     24 N3          -2.7060     1.7270    -2.9680 nd         1 DN3      -0.404000
     25 H1           3.8950     0.0060     0.3470 ha         1 DN3       0.121000
     26 H2           5.1180     0.0160     2.4850 ha         1 DN3       0.135000
     27 H3           3.8810     0.0150     4.6150 ha         1 DN3       0.139000
     28 H4           1.7980    -0.5050     5.7430 h1         1 DN3       0.042700
     29 H5           0.2620    -0.5130     4.8650 h1         1 DN3       0.042700
     30 H7          -0.3940     2.9280     4.9740 h1         1 DN3       0.034867
     31 H8          -0.7480     1.3800     4.1940 h1         1 DN3       0.034867
     32 H9           0.5860     2.3830     3.6060 h1         1 DN3       0.034867
     33 H10          0.3280     2.4650     7.0960 h1         1 DN3       0.034867
     34 H11         -0.5140     0.9320     6.8330 h1         1 DN3       0.034867
     35 H12          1.1430     0.9360     7.4510 h1         1 DN3       0.034867
     36 H13          0.1760    -0.0060     2.4940 ha         1 DN3       0.159000
     37 H14          2.8850     0.0890    -1.1710 hn         1 DN3       0.329500
     38 H15         -0.4790     1.0470    -1.6900 ha         1 DN3       0.195000
     39 H16         -0.7090    -0.4110    -5.7200 ha         1 DN3       0.122000
     40 H17          1.4960    -1.4740    -5.4580 ha         1 DN3       0.138000
     41 H18          2.7160    -1.2840    -3.3280 ha         1 DN3       0.135000
     42 H19         -2.6480     0.5540    -5.8590 hn         1 DN3       0.336700
@<TRIPOS>BOND
     1     5     6 ar
     2     5     4 ar
     3     6     7 ar
     4     4     3 ar
     5     7     8 1
     6     7    12 ar
     7     9    11 1
     8     9     8 1
     9     9    10 1
    10     3    12 ar
    11     3     2 1
    12    21    22 1
    13    21    20 1
    14    22    23 2
    15    13     2 1
    16    13    14 1
    17    15    14 ar
    18    15    16 ar
    19     2     1 2
    20    14    19 ar
    21    20    16 1
    22    20    24 2
    23    23    24 1
    24    16    17 ar
    25    19    18 ar
    26    17    18 ar
    27     4    25 1
    28     5    26 1
    29     6    27 1
    30     8    28 1
    31     8    29 1
    32    10    30 1
    33    10    31 1
    34    10    32 1
    35    11    33 1
    36    11    34 1
    37    11    35 1
    38    12    36 1
    39    13    37 1
    40    15    38 1
    41    17    39 1
    42    18    40 1
    43    19    41 1
    44    21    42 1
@<TRIPOS>SUBSTRUCTURE
     1 DN3         1 TEMP              0 ****  ****    0 ROOT
