@<TRIPOS>MOLECULE
DN3
   42    44     1     0     0
SMALL
bcc


@<TRIPOS>ATOM
      1 O14          0.0000     0.0000     0.0000 o          1 DN3      -0.626100
      2 C13          1.2150     0.0000     0.0000 c          1 DN3       0.589700
      3 C15          1.9550     0.0000     1.2800 ca         1 DN3      -0.165600
      4 C16          3.3500     0.0060     1.2840 ca         1 DN3      -0.086000
      5 C17          4.0340     0.0110     2.4810 ca         1 DN3      -0.110000
      6 C18          3.3390     0.0100     3.6770 ca         1 DN3      -0.052000
      7 C19          1.9550     0.0040     3.6820 ca         1 DN3      -0.099300
      8 C21          1.2070     0.0020     4.9900 c3         1 DN3       0.210100
      9 N22          0.9580     1.3870     5.4130 n3         1 DN3      -0.544600
     10 C23          0.0400     2.0640     4.4860 c3         1 DN3       0.179100
     11 C24          0.4450     1.4330     6.7880 c3         1 DN3       0.179100
     12 C20          1.2600    -0.0010     2.4900 ca         1 DN3      -0.029000
     13 N12          1.8890    -0.0060    -1.1680 ns         1 DN3      -0.043100
     14 C10          1.1930    -0.1090    -2.3770 ca         1 DN3      -0.084400
     15 C11         -0.0480     0.4940    -2.5160 ca         1 DN3      -0.054000
     16 C6          -0.7370     0.3880    -3.7230 ca         1 DN3      -0.122500
     17 C7          -0.1750    -0.3250    -4.7820 ca         1 DN3      -0.115000
     18 C8           1.0600    -0.9230    -4.6340 ca         1 DN3      -0.079000
     19 C9           1.7470    -0.8120    -3.4390 ca         1 DN3      -0.117000
     20 C2          -2.0620     1.0300    -3.8800 cc         1 DN3       0.307000
     21 N1          -2.8440     1.0050    -4.9870 na         1 DN3       0.287600
     22 N5          -3.9880     1.7470    -4.6480 nc         1 DN3      -0.401800
     23 N4          -3.8290     2.1450    -3.4320 nd         1 DN3       0.033000
     24 N3          -2.7060     1.7270    -2.9680 nd         1 DN3      -0.381000
     25 H1           3.8950     0.0060     0.3470 ha         1 DN3       0.097000
     26 H2           5.1180     0.0160     2.4850 ha         1 DN3       0.106000
     27 H3           3.8810     0.0150     4.6150 ha         1 DN3       0.109000
     28 H4           1.7980    -0.5050     5.7430 h1         1 DN3       0.014700
     29 H5           0.2620    -0.5130     4.8650 h1         1 DN3       0.014700
     30 H7          -0.3940     2.9280     4.9740 h1         1 DN3       0.003700
     31 H8          -0.7480     1.3800     4.1940 h1         1 DN3       0.003700
     32 H9           0.5860     2.3830     3.6060 h1         1 DN3       0.003700
     33 H10          0.3280     2.4650     7.0960 h1         1 DN3       0.003700
     34 H11         -0.5140     0.9320     6.8330 h1         1 DN3       0.003700
     35 H12          1.1430     0.9360     7.4510 h1         1 DN3       0.003700
     36 H13          0.1760    -0.0060     2.4940 ha         1 DN3       0.133000
     37 H14          2.8850     0.0890    -1.1710 hn         1 DN3       0.176500
     38 H15         -0.4790     1.0470    -1.6900 ha         1 DN3       0.172000
     39 H16         -0.7090    -0.4110    -5.7200 ha         1 DN3       0.095000
     40 H17          1.4960    -1.4740    -5.4580 ha         1 DN3       0.107000
     41 H18          2.7160    -1.2840    -3.3280 ha         1 DN3       0.108000
     42 H19         -2.6480     0.5540    -5.8590 hn         1 DN3       0.172700
@<TRIPOS>BOND
     1     1     2 2   
     2     2     3 1   
     3     2    13 1   
     4     3     4 ar  
     5     3    12 ar  
     6     4     5 ar  
     7     4    25 1   
     8     5     6 ar  
     9     5    26 1   
    10     6     7 ar  
    11     6    27 1   
    12     7     8 1   
    13     7    12 ar  
    14     8     9 1   
    15     8    28 1   
    16     8    29 1   
    17     9    10 1   
    18     9    11 1   
    19    10    30 1   
    20    10    31 1   
    21    10    32 1   
    22    11    33 1   
    23    11    34 1   
    24    11    35 1   
    25    12    36 1   
    26    13    14 1   
    27    13    37 1   
    28    14    15 ar  
    29    14    19 ar  
    30    15    16 ar  
    31    15    38 1   
    32    16    17 ar  
    33    16    20 1   
    34    17    18 ar  
    35    17    39 1   
    36    18    19 ar  
    37    18    40 1   
    38    19    41 1   
    39    20    21 1   
    40    20    24 2   
    41    21    22 1   
    42    21    42 1   
    43    22    23 2   
    44    23    24 1   
@<TRIPOS>SUBSTRUCTURE
     1 DN3         1 TEMP              0 ****  ****    0 ROOT
