@<TRIPOS>MOLECULE
DN5
   51    54     1     0     0
SMALL
bcc


@<TRIPOS>ATOM
      1 C10          0.0000     0.0000     0.0000 ca         1 DN5      -0.077300
      2 C11          1.3830     0.0000     0.0000 ca         1 DN5      -0.096000
      3 C13          1.3830     0.0000     2.3960 ca         1 DN5      -0.041600
      4 C15         -0.6910    -0.0010     1.1960 ca         1 DN5      -0.079000
      5 C18         -1.6320     1.2550    -1.3810 c3         1 DN5      -0.037700
      6 C19         -0.7460     2.5020    -1.4110 c3         1 DN5      -0.006600
      7 C20         -2.4830     1.2030    -2.6520 c3         1 DN5      -0.006600
      8 C22          0.8300    -5.7090    -4.4330 ca         1 DN5       0.050600
      9 C23          0.4580    -5.2730    -5.7030 ca         1 DN5       0.050600
     10 C25          1.1530    -5.7170    -6.8150 ca         1 DN5      -0.087500
     11 C26          2.2130    -6.5910    -6.6640 ca         1 DN5      -0.099500
     12 C27          2.5820    -7.0240    -5.4050 ca         1 DN5      -0.099500
     13 C28          1.8940    -6.5840    -4.2900 ca         1 DN5      -0.087500
     14 C1          -2.0390    -3.4900    -2.2180 c3         1 DN5       0.049000
     15 C2          -2.0510    -3.8480    -3.7090 c3         1 DN5      -0.069400
     16 C3          -0.6180    -4.0320    -4.1970 c3         1 DN5       0.358600
     17 C4           0.1900    -2.7530    -4.0050 c3         1 DN5      -0.069400
     18 C5           0.2180    -2.3880    -2.5160 c3         1 DN5       0.049000
     19 N6          -1.1630    -2.3270    -2.0190 n          1 DN5      -0.155800
     20 C7          -1.6190    -1.2250    -1.3910 c          1 DN5       0.601100
     21 O8          -2.7250    -1.2230    -0.8960 o          1 DN5      -0.643100
     22 C9          -0.7520     0.0050    -1.3060 c3         1 DN5      -0.069400
     23 C12          2.0740     0.0000     1.1970 ca         1 DN5      -0.089000
     24 C14         -0.0020     0.0000     2.3950 ca         1 DN5      -0.037600
     25 Cl6         -0.8700     0.0000     3.8980 cl         1 DN5       0.002600
     26 Cl7          2.2510    -0.0010     3.8990 cl         1 DN5      -0.003400
     27 O21          0.0040    -5.1300    -3.5120 os         1 DN5      -0.296900
     28 O24         -0.6070    -4.4260    -5.5790 os         1 DN5      -0.296900
     29 H1           1.9240     0.0000    -0.9380 ha         1 DN5       0.108000
     30 H2          -1.7750    -0.0000     1.1940 ha         1 DN5       0.144000
     31 H3          -2.3110     1.3150    -0.5390 hc         1 DN5       0.051700
     32 H4          -0.3350     2.6760    -0.4240 hc         1 DN5       0.007867
     33 H5          -1.3380     3.3580    -1.7120 hc         1 DN5       0.007867
     34 H6           0.0610     2.3540    -2.1180 hc         1 DN5       0.007867
     35 H7          -3.2450     0.4410    -2.5460 hc         1 DN5       0.007867
     36 H8          -2.9540     2.1660    -2.8110 hc         1 DN5       0.007867
     37 H9          -1.8510     0.9660    -3.5000 hc         1 DN5       0.007867
     38 H11          2.7550    -6.9390    -7.5360 ha         1 DN5       0.108000
     39 H12          3.4140    -7.7090    -5.2920 ha         1 DN5       0.108000
     40 H13          2.1860    -6.9250    -3.3040 ha         1 DN5       0.112000
     41 H14         -3.0440    -3.2460    -1.8970 h1         1 DN5       0.041200
     42 H15         -1.6620    -4.3300    -1.6470 h1         1 DN5       0.041200
     43 H16         -2.6010    -4.7700    -3.8530 hc         1 DN5       0.040950
     44 H17         -2.5220    -3.0490    -4.2670 hc         1 DN5       0.040950
     45 H18          1.2020    -2.9090    -4.3570 hc         1 DN5       0.040950
     46 H19         -0.2720    -1.9480    -4.5640 hc         1 DN5       0.040950
     47 H20          0.6920    -1.4220    -2.3890 h1         1 DN5       0.041200
     48 H21          0.7680    -3.1430    -1.9680 h1         1 DN5       0.041200
     49 H22         -0.0470     0.0090    -2.1280 hc         1 DN5       0.048700
     50 H23          3.1580    -0.0000     1.1960 ha         1 DN5       0.117000
     51 H10          0.8650    -5.3800    -7.8030 ha         1 DN5       0.112000
@<TRIPOS>BOND
     1     1     2 ar  
     2     1     4 ar  
     3     1    22 1   
     4     2    23 ar  
     5     2    29 1   
     6     3    23 ar  
     7     3    24 ar  
     8     3    26 1   
     9     4    24 ar  
    10     4    30 1   
    11     5     6 1   
    12     5     7 1   
    13     5    22 1   
    14     5    31 1   
    15     6    32 1   
    16     6    33 1   
    17     6    34 1   
    18     7    35 1   
    19     7    36 1   
    20     7    37 1   
    21     8     9 ar  
    22     8    13 ar  
    23     8    27 1   
    24     9    10 ar  
    25     9    28 1   
    26    10    11 ar  
    27    10    51 1   
    28    11    12 ar  
    29    11    38 1   
    30    12    13 ar  
    31    12    39 1   
    32    13    40 1   
    33    14    15 1   
    34    14    19 1   
    35    14    41 1   
    36    14    42 1   
    37    15    16 1   
    38    15    43 1   
    39    15    44 1   
    40    16    17 1   
    41    16    27 1   
    42    16    28 1   
    43    17    18 1   
    44    17    45 1   
    45    17    46 1   
    46    18    19 1   
    47    18    47 1   
    48    18    48 1   
    49    19    20 1   
    50    20    21 2   
    51    20    22 1   
    52    22    49 1   
    53    23    50 1   
    54    24    25 1   
@<TRIPOS>SUBSTRUCTURE
     1 DN5         1 TEMP              0 ****  ****    0 ROOT
