@<TRIPOS>MOLECULE
molecule
   51    54     1     0     0
SMALL
bcc


@<TRIPOS>ATOM
      1 C10          0.0000     0.0000     0.0000 ca         1 DN5      -0.072300
      2 C11          1.3830     0.0000     0.0000 ca         1 DN5      -0.120000
      3 C13          1.3830     0.0000     2.3960 ca         1 DN5       0.030400
      4 C15         -0.6910    -0.0010     1.1960 ca         1 DN5      -0.098000
      5 C18         -1.6320     1.2550    -1.3810 c3         1 DN5      -0.058700
      6 C19         -0.7460     2.5020    -1.4110 c3         1 DN5      -0.094100
      7 C20         -2.4830     1.2030    -2.6520 c3         1 DN5      -0.094100
      8 C22          0.8300    -5.7090    -4.4330 ca         1 DN5       0.045600
      9 C23          0.4580    -5.2730    -5.7030 ca         1 DN5       0.045600
     10 C25          1.1530    -5.7170    -6.8150 ca         1 DN5      -0.113500
     11 C26          2.2130    -6.5910    -6.6640 ca         1 DN5      -0.126000
     12 C27          2.5820    -7.0240    -5.4050 ca         1 DN5      -0.126000
     13 C28          1.8940    -6.5840    -4.2900 ca         1 DN5      -0.113500
     14 C1          -2.0390    -3.4900    -2.2180 c3         1 DN5       0.107500
     15 C2          -2.0510    -3.8480    -3.7090 c3         1 DN5      -0.111400
     16 C3          -0.6180    -4.0320    -4.1970 c3         1 DN5       0.339600
     17 C4           0.1900    -2.7530    -4.0050 c3         1 DN5      -0.111400
     18 C5           0.2180    -2.3880    -2.5160 c3         1 DN5       0.107500
     19 N6          -1.1630    -2.3270    -2.0190 n          1 DN5      -0.491800
     20 C7          -1.6190    -1.2250    -1.3910 c          1 DN5       0.674100
     21 O8          -2.7250    -1.2230    -0.8960 o          1 DN5      -0.606100
     22 C9          -0.7520     0.0050    -1.3060 c3         1 DN5      -0.093400
     23 C12          2.0740     0.0000     1.1970 ca         1 DN5      -0.114000
     24 C14         -0.0020     0.0000     2.3950 ca         1 DN5       0.032400
     25 Cl6         -0.8700     0.0000     3.8980 cl         1 DN5      -0.081400
     26 Cl7          2.2510    -0.0010     3.8990 cl         1 DN5      -0.085400
     27 O21          0.0040    -5.1300    -3.5120 os         1 DN5      -0.314900
     28 O24         -0.6070    -4.4260    -5.5790 os         1 DN5      -0.314900
     29 H1           1.9240     0.0000    -0.9380 ha         1 DN5       0.136000
     30 H2          -1.7750    -0.0000     1.1940 ha         1 DN5       0.172000
     31 H3          -2.3110     1.3150    -0.5390 hc         1 DN5       0.074700
     32 H4          -0.3350     2.6760    -0.4240 hc         1 DN5       0.038867
     33 H5          -1.3380     3.3580    -1.7120 hc         1 DN5       0.038867
     34 H6           0.0610     2.3540    -2.1180 hc         1 DN5       0.038867
     35 H7          -3.2450     0.4410    -2.5460 hc         1 DN5       0.038867
     36 H8          -2.9540     2.1660    -2.8110 hc         1 DN5       0.038867
     37 H9          -1.8510     0.9660    -3.5000 hc         1 DN5       0.038867
     38 H11          2.7550    -6.9390    -7.5360 ha         1 DN5       0.139000
     39 H12          3.4140    -7.7090    -5.2920 ha         1 DN5       0.139000
     40 H13          2.1860    -6.9250    -3.3040 ha         1 DN5       0.143500
     41 H14         -3.0440    -3.2460    -1.8970 h1         1 DN5       0.068450
     42 H15         -1.6620    -4.3300    -1.6470 h1         1 DN5       0.068450
     43 H16         -2.6010    -4.7700    -3.8530 hc         1 DN5       0.071950
     44 H17         -2.5220    -3.0490    -4.2670 hc         1 DN5       0.071950
     45 H18          1.2020    -2.9090    -4.3570 hc         1 DN5       0.071950
     46 H19         -0.2720    -1.9480    -4.5640 hc         1 DN5       0.071950
     47 H20          0.6920    -1.4220    -2.3890 h1         1 DN5       0.068450
     48 H21          0.7680    -3.1430    -1.9680 h1         1 DN5       0.068450
     49 H22         -0.0470     0.0090    -2.1280 hc         1 DN5       0.068700
     50 H23          3.1580    -0.0000     1.1960 ha         1 DN5       0.150000
     51 H10          0.8650    -5.3800    -7.8030 ha         1 DN5       0.143500
@<TRIPOS>BOND
     1    27     8 1
     2    27    16 1
     3    13     8 ar
     4    13    12 ar
     5    15    16 1
     6    15    14 1
     7     7     5 1
     8     8     9 ar
     9    12    11 ar
    10    16    17 1
    11    16    28 1
    12    14    19 1
    13     6     5 1
    14    22     5 1
    15    22    20 1
    16    22     1 1
    17    17    18 1
    18    19    20 1
    19    19    18 1
    20     9    28 1
    21     9    10 ar
    22    20    21 2
    23     4     1 ar
    24     4    24 ar
    25    11    10 ar
    26    25    24 1
    27     1     2 ar
    28    24     3 ar
    29     2    23 ar
    30     3    23 ar
    31     3    26 1
    32     2    29 1
    33     4    30 1
    34     5    31 1
    35     6    32 1
    36     6    33 1
    37     6    34 1
    38     7    35 1
    39     7    36 1
    40     7    37 1
    41    10    51 1
    42    11    38 1
    43    12    39 1
    44    13    40 1
    45    14    41 1
    46    14    42 1
    47    15    43 1
    48    15    44 1
    49    17    45 1
    50    17    46 1
    51    18    47 1
    52    18    48 1
    53    22    49 1
    54    23    50 1
@<TRIPOS>SUBSTRUCTURE
     1 DN5         1 TEMP              0 ****  ****    0 ROOT
