@<TRIPOS>MOLECULE
DN6
   34    36     1     0     0
SMALL
bcc


@<TRIPOS>ATOM
      1 F24          0.0000     0.0000     0.0000 f          1 DN6      -0.205633
      2 C7           1.3990     0.0000     0.0000 c3         1 DN6       0.642200
      3 F22          1.8650     0.0000     1.3190 f          1 DN6      -0.205633
      4 F23          1.8650    -1.1420    -0.6590 f          1 DN6      -0.205633
      5 C6           1.9010     1.2300    -0.7110 ca         1 DN6      -0.220300
      6 C1           2.1270     1.1960    -2.0750 ca         1 DN6      -0.017000
      7 C5           2.1300     2.3900     0.0000 ca         1 DN6       0.028000
      8 C4           2.5960     3.5280    -0.6600 ca         1 DN6      -0.169600
      9 C3           2.8260     3.4850    -2.0360 ca         1 DN6      -0.053000
     10 C2           2.5880     2.3210    -2.7360 ca         1 DN6      -0.114000
     11 C8           2.8430     4.7750     0.0950 c          1 DN6       0.584700
     12 O21          2.6410     4.8100     1.2930 o          1 DN6      -0.614100
     13 N9           3.2930     5.8730    -0.5450 ns         1 DN6      -0.038100
     14 C10          3.4210     7.0810     0.1470 ca         1 DN6      -0.084400
     15 C15          4.4390     7.9680    -0.1870 ca         1 DN6      -0.119000
     16 C14          4.5710     9.1640     0.4940 ca         1 DN6      -0.076000
     17 C13          3.6920     9.4850     1.5100 ca         1 DN6      -0.114000
     18 C12          2.6680     8.6020     1.8510 ca         1 DN6      -0.117500
     19 C11          2.5300     7.3990     1.1600 ca         1 DN6      -0.053000
     20 C16          1.7250     8.9440     2.9390 cc         1 DN6       0.305000
     21 N20          1.7320    10.0770     3.6850 na         1 DN6       0.287600
     22 N19          0.6540     9.9380     4.5770 nc         1 DN6      -0.400800
     23 N18          0.1040     8.8000     4.3230 nd         1 DN6       0.035000
     24 N17          0.7180     8.2100     3.3630 nd         1 DN6      -0.380000
     25 H1           1.9410     0.2840    -2.6300 ha         1 DN6       0.119000
     26 H2           1.9500     2.4170     1.0680 ha         1 DN6       0.144000
     27 H3           3.1870     4.3660    -2.5540 ha         1 DN6       0.102000
     28 H4           2.7640     2.2860    -3.8040 ha         1 DN6       0.114000
     29 H5           3.5590     5.8160    -1.5080 hn         1 DN6       0.174500
     30 H6           5.1310     7.7210    -0.9830 ha         1 DN6       0.108000
     31 H7           5.3660     9.8500     0.2300 ha         1 DN6       0.108000
     32 H8           3.8000    10.4220     2.0430 ha         1 DN6       0.096000
     33 H9           1.7360     6.7100     1.4210 ha         1 DN6       0.166000
     34 H10          2.3680    10.8470     3.6150 hn         1 DN6       0.172700
@<TRIPOS>BOND
     1     1     2 1   
     2     2     3 1   
     3     2     4 1   
     4     2     5 1   
     5     5     6 ar  
     6     5     7 ar  
     7     6    10 ar  
     8     6    25 1   
     9     7     8 ar  
    10     7    26 1   
    11     8     9 ar  
    12     8    11 1   
    13     9    10 ar  
    14     9    27 1   
    15    10    28 1   
    16    11    12 2   
    17    11    13 1   
    18    13    14 1   
    19    13    29 1   
    20    14    15 ar  
    21    14    19 ar  
    22    15    16 ar  
    23    15    30 1   
    24    16    17 ar  
    25    16    31 1   
    26    17    18 ar  
    27    17    32 1   
    28    18    19 ar  
    29    18    20 1   
    30    19    33 1   
    31    20    21 1   
    32    20    24 2   
    33    21    22 1   
    34    21    34 1   
    35    22    23 2   
    36    23    24 1   
@<TRIPOS>SUBSTRUCTURE
     1 DN6         1 TEMP              0 ****  ****    0 ROOT
