@<TRIPOS>MOLECULE
molecule
   34    36     1     0     0
SMALL
bcc


@<TRIPOS>ATOM
      1 F24          0.0000     0.0000     0.0000 f          1 DN6      -0.219633
      2 C7           1.3990     0.0000     0.0000 c3         1 DN6       0.676200
      3 F22          1.8650     0.0000     1.3190 f          1 DN6      -0.219633
      4 F23          1.8650    -1.1420    -0.6590 f          1 DN6      -0.219633
      5 C6           1.9010     1.2300    -0.7110 ca         1 DN6      -0.189300
      6 C1           2.1270     1.1960    -2.0750 ca         1 DN6      -0.056000
      7 C5           2.1300     2.3900     0.0000 ca         1 DN6      -0.017000
      8 C4           2.5960     3.5280    -0.6600 ca         1 DN6      -0.154600
      9 C3           2.8260     3.4850    -2.0360 ca         1 DN6      -0.080000
     10 C2           2.5880     2.3210    -2.7360 ca         1 DN6      -0.140000
     11 C8           2.8430     4.7750     0.0950 c          1 DN6       0.674700
     12 O21          2.6410     4.8100     1.2930 o          1 DN6      -0.573100
     13 N9           3.2930     5.8730    -0.5450 ns         1 DN6      -0.477100
     14 C10          3.4210     7.0810     0.1470 ca         1 DN6       0.059600
     15 C15          4.4390     7.9680    -0.1870 ca         1 DN6      -0.145000
     16 C14          4.5710     9.1640     0.4940 ca         1 DN6      -0.108000
     17 C13          3.6920     9.4850     1.5100 ca         1 DN6      -0.133000
     18 C12          2.6680     8.6020     1.8510 ca         1 DN6      -0.122500
     19 C11          2.5300     7.3990     1.1600 ca         1 DN6      -0.077000
     20 C16          1.7250     8.9440     2.9390 cc         1 DN6       0.476000
     21 N20          1.7320    10.0770     3.6850 na         1 DN6      -0.191400
     22 N19          0.6540     9.9380     4.5770 nc         1 DN6      -0.212800
     23 N18          0.1040     8.8000     4.3230 nd         1 DN6      -0.003000
     24 N17          0.7180     8.2100     3.3630 nd         1 DN6      -0.403000
     25 H1           1.9410     0.2840    -2.6300 ha         1 DN6       0.152000
     26 H2           1.9500     2.4170     1.0680 ha         1 DN6       0.177000
     27 H3           3.1870     4.3660    -2.5540 ha         1 DN6       0.129000
     28 H4           2.7640     2.2860    -3.8040 ha         1 DN6       0.144000
     29 H5           3.5590     5.8160    -1.5080 hn         1 DN6       0.327500
     30 H6           5.1310     7.7210    -0.9830 ha         1 DN6       0.135000
     31 H7           5.3660     9.8500     0.2300 ha         1 DN6       0.140000
     32 H8           3.8000    10.4220     2.0430 ha         1 DN6       0.124000
     33 H9           1.7360     6.7100     1.4210 ha         1 DN6       0.190000
     34 H10          2.3680    10.8470     3.6150 hn         1 DN6       0.337700
@<TRIPOS>BOND
     1    10     6 ar
     2    10     9 ar
     3     6     5 ar
     4     9     8 ar
     5     3     2 1
     6     5     2 1
     7     5     7 ar
     8     8     7 ar
     9     8    11 1
    10     2     1 1
    11     2     4 1
    12    22    21 1
    13    22    23 2
    14    21    20 1
    15    13    11 1
    16    13    14 1
    17    11    12 2
    18    19    14 ar
    19    19    18 ar
    20    14    15 ar
    21    20    18 1
    22    20    24 2
    23    23    24 1
    24    18    17 ar
    25    15    16 ar
    26    17    16 ar
    27     6    25 1
    28     7    26 1
    29     9    27 1
    30    10    28 1
    31    13    29 1
    32    15    30 1
    33    16    31 1
    34    17    32 1
    35    19    33 1
    36    21    34 1
@<TRIPOS>SUBSTRUCTURE
     1 DN6         1 TEMP              0 ****  ****    0 ROOT
