@<TRIPOS>MOLECULE
molecule
   24    25     1     0     0
SMALL
bcc


@<TRIPOS>ATOM
      1 C12          0.0000     0.0000     0.0000 ca         1 DN7      -0.096500
      2 C8          -2.8250    -2.2880     5.3960 ca         1 DN7      -0.073000
      3 C7          -2.1480    -1.1310     5.0520 ca         1 DN7      -0.282300
      4 C3           2.0930     0.0000     1.2130 ca         1 DN7      -0.096500
      5 C2           1.3980     0.0000     0.0000 ca         1 DN7      -0.094600
      6 C1           2.1360    -0.0010    -1.2760 c          1 DN7       0.881200
      7 C4           1.3990    -0.0010     2.4010 ca         1 DN7      -0.152500
      8 C5           0.0090    -0.0050     2.3980 ca         1 DN7       0.062100
      9 C6          -1.3410    -1.1320     3.9210 ca         1 DN7       0.668600
     10 O1           1.4650    -0.0010    -2.4440 o          1 DN7      -0.836300
     11 O2           3.3510    -0.0010    -1.2740 o          1 DN7      -0.836300
     12 O3          -0.6710    -0.0050     3.5720 os         1 DN7      -0.359400
     13 C9          -2.6730    -3.4100     4.5930 ca         1 DN7      -0.315300
     14 C10         -1.8550    -3.3390     3.4820 ca         1 DN7       0.461200
     15 N1          -1.2220    -2.2210     3.1790 nb         1 DN7      -0.735000
     16 C11         -0.6870     0.0010     1.1940 ca         1 DN7      -0.152500
     17 H1          -0.5420     0.0020    -0.9380 ha         1 DN7       0.154000
     18 H4           3.1760     0.0020     1.2170 ha         1 DN7       0.154000
     19 H5           1.9370    -0.0010     3.3420 ha         1 DN7       0.115500
     20 H7          -3.1890    -4.3310     4.8340 ha         1 DN7       0.127000
     21 H8          -1.7320    -4.2110     2.8520 h4         1 DN7       0.021100
     22 H9          -1.7700    -0.0010     1.1950 ha         1 DN7       0.115500
     23 H2          -3.4610    -2.3170     6.2730 ha         1 DN7       0.127000
     24 H3          -2.2450    -0.2380     5.6570 ha         1 DN7       0.142000
@<TRIPOS>BOND
     1     2     3 ar
     2     2    13 ar
     3     3     9 ar
     4    11     6 1
     5    13    14 ar
     6     4     7 ar
     7     4     5 ar
     8     7     8 ar
     9     9    12 1
    10     9    15 ar
    11     6     5 1
    12     6    10 1
    13     5     1 ar
    14     8    12 1
    15     8    16 ar
    16    14    15 ar
    17     1    16 ar
    18     1    17 1
    19     2    23 1
    20     3    24 1
    21     4    18 1
    22     7    19 1
    23    13    20 1
    24    14    21 1
    25    16    22 1
@<TRIPOS>SUBSTRUCTURE
     1 DN7         1 TEMP              0 ****  ****    0 ROOT
