@<TRIPOS>MOLECULE
DN8
   31    33     1     0     0
SMALL
bcc


@<TRIPOS>ATOM
      1 O21          0.0000     0.0000     0.0000 o          1 DN8      -0.617100
      2 C7           1.2150     0.0000     0.0000 c          1 DN8       0.585700
      3 C4           1.9550     0.0000     1.2800 ca         1 DN8      -0.158600
      4 C3           3.3510     0.0060     1.2820 ca         1 DN8      -0.079000
      5 C2           4.0370     0.0110     2.4800 ca         1 DN8      -0.103000
      6 C5           1.2620    -0.0000     2.4900 ca         1 DN8      -0.012000
      7 C6           1.9590     0.0000     3.6820 ca         1 DN8       0.017100
      8 Br1          1.0210    -0.0010     5.3240 br         1 DN8      -0.111100
      9 C1           3.3430     0.0110     3.6760 ca         1 DN8      -0.057000
     10 N8           1.8880    -0.0050    -1.1680 ns         1 DN8      -0.041100
     11 C9           1.1930    -0.1230    -2.3750 ca         1 DN8      -0.083400
     12 C14          1.6640     0.5200    -3.5140 ca         1 DN8      -0.118000
     13 C13          0.9800     0.4070    -4.7100 ca         1 DN8      -0.077000
     14 C12         -0.1760    -0.3450    -4.7810 ca         1 DN8      -0.115000
     15 C11         -0.6570    -0.9940    -3.6430 ca         1 DN8      -0.119500
     16 C10          0.0370    -0.8850    -2.4380 ca         1 DN8      -0.053000
     17 C15         -1.8960    -1.8000    -3.7160 cc         1 DN8       0.307000
     18 N19         -2.6630    -2.0010    -4.8160 na         1 DN8       0.286600
     19 N18         -3.7160    -2.8280    -4.3850 nc         1 DN8      -0.400800
     20 N17         -3.5250    -3.0530    -3.1310 nd         1 DN8       0.035000
     21 N16         -2.4580    -2.4620    -2.7260 nd         1 DN8      -0.381000
     22 H1           3.8950     0.0060     0.3450 ha         1 DN8       0.101000
     23 H2           5.1200     0.0180     2.4830 ha         1 DN8       0.110000
     24 H3           0.1810     0.0730     2.4950 ha         1 DN8       0.143000
     25 H4           3.8860     0.0130     4.6140 ha         1 DN8       0.117000
     26 H5           2.8850     0.0770    -1.1710 hn         1 DN8       0.175500
     27 H6           2.5700     1.1110    -3.4650 ha         1 DN8       0.108000
     28 H7           1.3510     0.9100    -5.5950 ha         1 DN8       0.107000
     29 H8          -0.7110    -0.4290    -5.7190 ha         1 DN8       0.095000
     30 H9          -0.3320    -1.3880    -1.5520 ha         1 DN8       0.166000
     31 H10         -2.5120    -1.6400    -5.7370 hn         1 DN8       0.172700
@<TRIPOS>BOND
     1     1     2 2   
     2     2     3 1   
     3     2    10 1   
     4     3     4 ar  
     5     3     6 ar  
     6     4     5 ar  
     7     4    22 1   
     8     5     9 ar  
     9     5    23 1   
    10     6     7 ar  
    11     6    24 1   
    12     7     8 1   
    13     7     9 ar  
    14     9    25 1   
    15    10    11 1   
    16    10    26 1   
    17    11    12 ar  
    18    11    16 ar  
    19    12    13 ar  
    20    12    27 1   
    21    13    14 ar  
    22    13    28 1   
    23    14    15 ar  
    24    14    29 1   
    25    15    16 ar  
    26    15    17 1   
    27    16    30 1   
    28    17    18 1   
    29    17    21 2   
    30    18    19 1   
    31    18    31 1   
    32    19    20 2   
    33    20    21 1   
@<TRIPOS>SUBSTRUCTURE
     1 DN8         1 TEMP              0 ****  ****    0 ROOT
