@<TRIPOS>MOLECULE
molecule
   31    33     1     0     0
SMALL
bcc


@<TRIPOS>ATOM
      1 O21          0.0000     0.0000     0.0000 o          1 DN8      -0.576100
      2 C7           1.2150     0.0000     0.0000 c          1 DN8       0.675700
      3 C4           1.9550     0.0000     1.2800 ca         1 DN8      -0.149600
      4 C3           3.3510     0.0060     1.2820 ca         1 DN8      -0.096000
      5 C2           4.0370     0.0110     2.4800 ca         1 DN8      -0.134000
      6 C5           1.2620    -0.0000     2.4900 ca         1 DN8      -0.038000
      7 C6           1.9590     0.0000     3.6820 ca         1 DN8      -0.029900
      8 Br1          1.0210    -0.0010     5.3240 br         1 DN8      -0.077100
      9 C1           3.3430     0.0110     3.6760 ca         1 DN8      -0.078000
     10 N8           1.8880    -0.0050    -1.1680 ns         1 DN8      -0.477100
     11 C9           1.1930    -0.1230    -2.3750 ca         1 DN8       0.060600
     12 C14          1.6640     0.5200    -3.5140 ca         1 DN8      -0.144000
     13 C13          0.9800     0.4070    -4.7100 ca         1 DN8      -0.109000
     14 C12         -0.1760    -0.3450    -4.7810 ca         1 DN8      -0.133000
     15 C11         -0.6570    -0.9940    -3.6430 ca         1 DN8      -0.123500
     16 C10          0.0370    -0.8850    -2.4380 ca         1 DN8      -0.077000
     17 C15         -1.8960    -1.8000    -3.7160 cc         1 DN8       0.477000
     18 N19         -2.6630    -2.0010    -4.8160 na         1 DN8      -0.191400
     19 N18         -3.7160    -2.8280    -4.3850 nc         1 DN8      -0.212800
     20 N17         -3.5250    -3.0530    -3.1310 nd         1 DN8      -0.004000
     21 N16         -2.4580    -2.4620    -2.7260 nd         1 DN8      -0.404000
     22 H1           3.8950     0.0060     0.3450 ha         1 DN8       0.126000
     23 H2           5.1200     0.0180     2.4830 ha         1 DN8       0.142000
     24 H3           0.1810     0.0730     2.4950 ha         1 DN8       0.174000
     25 H4           3.8860     0.0130     4.6140 ha         1 DN8       0.148000
     26 H5           2.8850     0.0770    -1.1710 hn         1 DN8       0.328500
     27 H6           2.5700     1.1110    -3.4650 ha         1 DN8       0.135000
     28 H7           1.3510     0.9100    -5.5950 ha         1 DN8       0.139000
     29 H8          -0.7110    -0.4290    -5.7190 ha         1 DN8       0.123000
     30 H9          -0.3320    -1.3880    -1.5520 ha         1 DN8       0.190000
     31 H10         -2.5120    -1.6400    -5.7370 hn         1 DN8       0.336700
@<TRIPOS>BOND
     1     5     9 ar
     2     5     4 ar
     3     9     7 ar
     4     4     3 ar
     5     7     8 1
     6     7     6 ar
     7     3     6 ar
     8     3     2 1
     9    19    18 1
    10    19    20 2
    11    18    17 1
    12    10     2 1
    13    10    11 1
    14    16    11 ar
    15    16    15 ar
    16     2     1 2
    17    11    12 ar
    18    17    15 1
    19    17    21 2
    20    20    21 1
    21    15    14 ar
    22    12    13 ar
    23    14    13 ar
    24     4    22 1
    25     5    23 1
    26     6    24 1
    27     9    25 1
    28    10    26 1
    29    12    27 1
    30    13    28 1
    31    14    29 1
    32    16    30 1
    33    18    31 1
@<TRIPOS>SUBSTRUCTURE
     1 DN8         1 TEMP              0 ****  ****    0 ROOT
