@<TRIPOS>MOLECULE
molecule
   22    23     1     0     0
SMALL
bcc


@<TRIPOS>ATOM
      1 O1A          0.0000     0.0000     0.0000 o          1 DNA      -0.825800
      2 O1B          1.8890     0.0040    -1.1670 o          1 DNA      -0.825800
      3 O1D         -0.1040    -0.0200     2.4810 oh         1 DNA      -0.486100
      4 C1E          3.4060     0.0110     6.0630 ca         1 DNA      -0.155000
      5 C1F          2.0130     0.0000     6.0860 ca         1 DNA      -0.151000
      6 C1G          4.0880     0.0160     4.8830 ca         1 DNA      -0.107000
      7 C1H          1.2950    -0.0070     4.9280 ca         1 DNA      -0.109000
      8 C1I          3.3600    -0.0060     1.2690 ca         1 DNA      -0.107000
      9 C1J          1.2160     0.0000     0.0000 c          1 DNA       0.878200
     10 C1K          4.0620     0.0070     2.4330 ca         1 DNA       0.055100
     11 C1L          1.9520    -0.0050     1.2740 ca         1 DNA      -0.101600
     12 C1M          1.2520    -0.0100     2.4780 ca         1 DNA       0.107100
     13 C1N          3.3820     0.0020     3.6710 ca         1 DNA      -0.044000
     14 C1O          1.9650    -0.0030     3.6940 ca         1 DNA      -0.061000
     15 HO1C         5.7370    -0.7650     1.9970 ho         1 DNA       0.406000
     16 HO1D        -0.4110    -0.9060     2.5780 ho         1 DNA       0.408000
     17 H1E          3.9550     0.0160     6.9970 ha         1 DNA       0.108000
     18 H1F          1.4940    -0.0030     7.0370 ha         1 DNA       0.110000
     19 H1G          5.1710     0.0240     4.8810 ha         1 DNA       0.131000
     20 H1H          0.2120    -0.0150     4.9590 ha         1 DNA       0.133000
     21 H1I          3.8910    -0.0160     0.3250 ha         1 DNA       0.165000
     22 O1C          5.4210     0.0230     2.4060 oh         1 DNA      -0.528100
@<TRIPOS>BOND
     1     1     9 1
     2     9     2 1
     3    10    22 1
     4    22    15 1
     5     3    12 1
     6     3    16 1
     7     5     4 ar
     8     4     6 ar
     9     4    17 1
    10     5     7 ar
    11     5    18 1
    12     6    13 ar
    13     6    19 1
    14     7    14 ar
    15     7    20 1
    16    11     8 ar
    17    10     8 ar
    18     8    21 1
    19    11     9 1
    20    13    10 ar
    21    12    11 ar
    22    14    12 ar
    23    14    13 ar
@<TRIPOS>SUBSTRUCTURE
     1 DNA         1 TEMP              0 ****  ****    0 ROOT
