@<TRIPOS>MOLECULE
DNA
   22    21     1     0     0
SMALL
bcc


@<TRIPOS>ATOM
      1 O1A         0.0030    0.0210   -0.2840 o         1 DNA     -0.556500
      2 O1B         2.0070    0.0040   -1.2600 o         1 DNA     -0.556500
      3 O1D        -0.1420    0.0010    2.4170 oh        1 DNA     -0.306000
      4 C1E         4.5710   -0.0860    5.8990 c1        1 DNA     -0.273000
      5 C1F        -0.1910   -0.0180    4.9490 c1        1 DNA      0.189000
      6 C1G         3.9900   -0.0710    4.8510 c1        1 DNA     -0.058000
      7 C1H         1.1220   -0.0340    4.8140 c2        1 DNA     -0.420000
      8 C1I         3.3320   -0.0330    1.1760 ca        1 DNA     -0.155000
      9 C1J         1.2700    0.0050   -0.2380 c2        1 DNA      0.366000
     10 C1K         4.0070   -0.0510    2.4040 ca        1 DNA      0.041000
     11 C1L         1.9430   -0.0150    1.1260 ca        1 DNA     -0.133000
     12 C1M         1.2250   -0.0150    2.3390 ca        1 DNA      0.096000
     13 C1N         3.3040   -0.0520    3.6230 ca        1 DNA     -0.007000
     14 C1O         1.8910   -0.0340    3.5860 ca        1 DNA     -0.019000
     15 HO1C        5.7110   -0.0670    1.5500 ho        1 DNA      0.210000
     16 HO1D       -0.5190    0.0130    1.5090 ho        1 DNA      0.293000
     17 H1E         1.7190   -0.0490    5.7540 ha        1 DNA      0.183000
     18 H1F         5.0930   -0.1010    6.8190 ha        1 DNA      0.209000
     19 H1G         2.2960   -0.0710    8.1790 ha        1 DNA      0.000500
     20 H1H         2.8180   -0.0740    7.7470 ha        1 DNA      0.000500
     21 H1I         3.8860   -0.0320    0.2220 ha        1 DNA      0.162000
     22 O1C         5.3900   -0.0700    2.4630 oh        1 DNA     -0.265000
@<TRIPOS>BOND
     1    1    9 1   
     2    2    9 1   
     3    3   12 1   
     4    3   16 1   
     5    4    6 1   
     6    4   18 1   
     7    5    7 1   
     8    6   13 1   
     9    7   14 1   
    10    7   17 1   
    11    8   10 1   
    12    8   11 1   
    13    8   21 1   
    14    9   11 1   
    15   10   13 1   
    16   10   22 1   
    17   11   12 1   
    18   12   14 1   
    19   13   14 1   
    20   15   22 1   
    21   19   20 1   
@<TRIPOS>SUBSTRUCTURE
     1 DNA         1 TEMP              0 ****  ****    0 ROOT
