@<TRIPOS>MOLECULE
molecule
   34    35     1     0     0
SMALL
bcc


@<TRIPOS>ATOM
      1 O2'          0.0000     0.0000     0.0000 oh         1 DNB      -0.577800
      2 C2'          1.4290     0.0000     0.0000 c3         1 DNB       0.149100
      3 C3'          1.9760     0.0000     1.4460 c3         1 DNB       0.112100
      4 O3'          0.9840     0.4900     2.3510 oh         1 DNB      -0.577800
      5 C1'          1.9780     1.3280    -0.5780 c3         1 DNB       0.198800
      6 N4'          3.3310     1.4280     0.0260 n7         1 DNB      -0.785200
      7 C4'          3.1880     0.9480     1.4180 c3         1 DNB       0.127500
      8 C5'          4.4500     0.1940     1.8410 c3         1 DNB       0.152400
      9 O5'          5.5460     1.1080     1.9240 oh         1 DNB      -0.603800
     10 C1           2.0690     1.2580    -2.0810 ca         1 DNB      -0.055300
     11 C6           3.1380     0.6130    -2.6760 ca         1 DNB      -0.151000
     12 C5           3.2280     0.5440    -4.0540 ca         1 DNB      -0.121000
     13 C4           2.2450     1.1210    -4.8430 ca         1 DNB       0.092600
     14 C3           1.1670     1.7700    -4.2420 ca         1 DNB       0.176600
     15 N3           0.1690     2.3560    -5.0330 nv         1 DNB      -0.923200
     16 C2           1.0810     1.8310    -2.8600 ca         1 DNB      -0.187000
     17 HO2'        -0.3140    -0.8700    -0.1820 ho         1 DNB       0.399000
     18 H2'          1.8190    -0.8460    -0.5540 h1         1 DNB       0.057700
     19 H3'          2.2880    -0.9980     1.7270 h1         1 DNB       0.035700
     20 HO3'         0.9730    -0.0470     3.1260 ho         1 DNB       0.398000
     21 H1'          1.3600     2.1620    -0.2650 h1         1 DNB       0.061700
     22 HN4'         3.6250     2.3850     0.0320 hn         1 DNB       0.369800
     23 H4'          3.0140     1.7880     2.0800 h1         1 DNB       0.062700
     24 H5'          4.2890    -0.2650     2.8090 h1         1 DNB       0.025700
     25 H5'A         4.6740    -0.5730     1.1100 h1         1 DNB       0.025700
     26 HO5'         6.1870     0.7760     2.5300 ho         1 DNB       0.400000
     27 H6           3.9070     0.1610    -2.0610 ha         1 DNB       0.146000
     28 H5           4.0680     0.0390    -4.5170 ha         1 DNB       0.131000
     29 HN3          0.2070     2.2710    -6.0290 hn         1 DNB       0.428800
     30 HN3A        -0.5780     2.8630    -4.6020 hn         1 DNB       0.428800
     31 H2           0.2450     2.3350    -2.3900 ha         1 DNB       0.134000
     32 N4           2.3340     1.0530    -6.2380 nv         1 DNB      -0.975200
     33 HN4          2.4570     1.8890    -6.7730 hn         1 DNB       0.421300
     34 HN4A         2.2890     0.1660    -6.7000 hn         1 DNB       0.421300
@<TRIPOS>BOND
     1     1     2 1
     2     1    17 1
     3     2     3 1
     4     2     5 1
     5     2    18 1
     6     3     4 1
     7     3     7 1
     8     3    19 1
     9     4    20 1
    10     5     6 1
    11     5    10 1
    12     5    21 1
    13     6     7 1
    14     6    22 1
    15     7     8 1
    16     7    23 1
    17     8     9 1
    18     8    24 1
    19     8    25 1
    20     9    26 1
    21    10    11 ar
    22    10    16 ar
    23    11    12 ar
    24    11    27 1
    25    12    13 ar
    26    12    28 1
    27    13    14 ar
    28    14    15 1
    29    14    16 ar
    30    15    29 1
    31    15    30 1
    32    16    31 1
    33    13    32 1
    34    32    33 1
    35    32    34 1
@<TRIPOS>SUBSTRUCTURE
     1 DNB         1 TEMP              0 ****  ****    0 ROOT
