@<TRIPOS>MOLECULE
molecule
   18    18     1     0     0
SMALL
bcc


@<TRIPOS>ATOM
      1 C1           0.0000     0.0000     0.0000 ca         1 DNC       0.034100
      2 O1          -0.6780     0.0050    -1.1780 oh         1 DNC      -0.499100
      3 C2           1.3960     0.0000     0.0000 ca         1 DNC       0.231100
      4 O2           2.0710     0.0090    -1.1720 oh         1 DNC      -0.469100
      5 C3           2.1040     0.0000     1.2230 ca         1 DNC      -0.230200
      6 N1           3.4450     0.0060     1.2260 no         1 DNC       0.326200
      7 O3           4.0520     0.0030     2.2820 o          1 DNC      -0.199000
      8 O4           4.0560     0.0150     0.1730 o          1 DNC      -0.199000
      9 C4           1.3980    -0.0100     2.4330 ca         1 DNC       0.033000
     10 C5          -0.0020    -0.0150     2.4180 ca         1 DNC      -0.219200
     11 N2          -0.6860    -0.0230     3.5730 no         1 DNC       0.328200
     12 O5          -1.9020    -0.0280     3.5600 o          1 DNC      -0.206500
     13 O6          -0.0880    -0.0270     4.6340 o          1 DNC      -0.206500
     14 C6          -0.6940    -0.0110     1.1880 ca         1 DNC      -0.028000
     15 HO1         -1.0360     0.8630    -1.3320 ho         1 DNC       0.440000
     16 HO2          1.9470    -0.8160    -1.6130 ho         1 DNC       0.460000
     17 H4           1.9320    -0.0100     3.3750 ha         1 DNC       0.213000
     18 H6          -1.7770    -0.0150     1.1800 ha         1 DNC       0.191000
@<TRIPOS>BOND
     1     1     2 1
     2     1     3 ar
     3     1    14 ar
     4     2    15 1
     5     3     4 1
     6     3     5 ar
     7     4    16 1
     8     5     6 1
     9     5     9 ar
    10     6     7 1
    11     6     8 1
    12     9    10 ar
    13     9    17 1
    14    10    11 1
    15    10    14 ar
    16    11    12 1
    17    11    13 1
    18    14    18 1
@<TRIPOS>SUBSTRUCTURE
     1 DNC         1 TEMP              0 ****  ****    0 ROOT
