@<TRIPOS>MOLECULE
DNF
   17    17     1     0     0
SMALL
bcc


@<TRIPOS>ATOM
      1 C1           0.0000     0.0000     0.0000 ca         1 DNF       0.280100
      2 O1          -0.6800     0.0060    -1.1760 oh         1 DNF      -0.448100
      3 C2           1.3880     0.0000     0.0000 ca         1 DNF      -0.504200
      4 N2           2.1290     0.0130    -1.2810 no         1 DNF       1.053200
      5 O21          1.5200     0.0120    -2.3360 o          1 DNF      -0.435500
      6 O22          3.3460     0.0220    -1.2810 o          1 DNF      -0.435500
      7 C3           2.0770     0.0000     1.1980 ca         1 DNF       0.107000
      8 C4           1.3850    -0.0110     2.3950 ca         1 DNF      -0.499200
      9 N4           2.1270    -0.0170     3.6760 no         1 DNF       1.051200
     10 O41          3.3450    -0.0110     3.6750 o          1 DNF      -0.441000
     11 O42          1.5190    -0.0260     4.7310 o          1 DNF      -0.441000
     12 C5           0.0030    -0.0170     2.3970 ca         1 DNF       0.074000
     13 C6          -0.6910    -0.0110     1.2030 ca         1 DNF      -0.217000
     14 HO1         -1.3270     0.6920    -1.1610 ho         1 DNF       0.422000
     15 H3           3.1600     0.0000     1.1990 ha         1 DNF       0.161000
     16 H5          -0.5370    -0.0260     3.3360 ha         1 DNF       0.137000
     17 H6          -1.7740    -0.0160     1.2050 ha         1 DNF       0.135000
@<TRIPOS>BOND
     1     1     2 1   
     2     1     3 ar  
     3     1    13 ar  
     4     2    14 1   
     5     3     4 1   
     6     3     7 ar  
     7     4     5 1   
     8     4     6 1   
     9     7     8 ar  
    10     7    15 1   
    11     8     9 1   
    12     8    12 ar  
    13     9    10 1   
    14     9    11 1   
    15    12    13 ar  
    16    12    16 1   
    17    13    17 1   
@<TRIPOS>SUBSTRUCTURE
     1 DNF         1 TEMP              0 ****  ****    0 ROOT
