@<TRIPOS>MOLECULE
molecule
   24    24     1     0     0
SMALL
bcc


@<TRIPOS>ATOM
      1 C7           0.0000     0.0000     0.0000 c3         1 DNH      -0.081400
      2 C8           1.5290     0.0000     0.0000 c3         1 DNH      -0.081400
      3 C3           0.0000    -1.2480     2.1640 c3         1 DNH       0.081500
      4 C4           1.5290    -1.2480     2.1640 c3         1 DNH       0.081500
      5 C5          -0.5110    -1.2480     0.7220 c3         1 DNH      -0.100400
      6 C6           2.0400     0.0000     1.4420 c3         1 DNH      -0.100400
      7 N1          -0.4910    -2.4450     2.8580 nz         1 DNH      -0.828100
      8 N2           2.0200    -1.2480     3.5480 nz         1 DNH      -0.828100
      9 H71         -0.3600    -0.0040    -1.0220 hc         1 DNH       0.098700
     10 H72         -0.3600     0.8840     0.5120 hc         1 DNH       0.098700
     11 H81          1.8890    -0.8860    -0.5090 hc         1 DNH       0.098700
     12 H82          1.8890     0.8860    -0.5090 hc         1 DNH       0.098700
     13 H3          -0.3580    -0.3600     2.6710 hx         1 DNH       0.136700
     14 H4           1.8870    -2.1310     1.6500 hx         1 DNH       0.136700
     15 H51         -1.5940    -1.2440     0.7250 hc         1 DNH       0.093700
     16 H52         -0.1480    -2.1320     0.2120 hc         1 DNH       0.093700
     17 H61          3.1230    -0.0040     1.4400 hc         1 DNH       0.093700
     18 H62          1.6770     0.8850     1.9520 hc         1 DNH       0.093700
     19 H11         -0.4070    -2.3160     3.8460 hn         1 DNH       0.468633
     20 H12          0.0520    -3.2390     2.5770 hn         1 DNH       0.468633
     21 H21          2.9800    -0.9670     3.5620 hn         1 DNH       0.468633
     22 H22          1.4780    -0.6080     4.0940 hn         1 DNH       0.468633
     23 H13         -1.4400    -2.6190     2.5930 hn         1 DNH       0.468633
     24 H23          1.9370    -2.1680     3.9310 hn         1 DNH       0.468633
@<TRIPOS>BOND
     1     1     2 1
     2     1     5 1
     3     1     9 1
     4     1    10 1
     5     2     6 1
     6     2    11 1
     7     2    12 1
     8     3     4 1
     9     3     5 1
    10     3     7 1
    11     3    13 1
    12     4     6 1
    13     4     8 1
    14     4    14 1
    15     5    15 1
    16     5    16 1
    17     6    17 1
    18     6    18 1
    19     7    19 1
    20     7    20 1
    21     8    21 1
    22     8    22 1
    23    23     7 1
    24    24     8 1
@<TRIPOS>SUBSTRUCTURE
     1 DNH         1 TEMP              0 ****  ****    0 ROOT
