@<TRIPOS>MOLECULE
DNJ
   24    24     1     0     0
SMALL
bcc


@<TRIPOS>ATOM
      1 C1           0.0000     0.0000     0.0000 c3         1 DNJ       0.113800
      2 C2           1.5300     0.0000     0.0000 c3         1 DNJ       0.175100
      3 O2           2.0070    -1.1650    -0.6750 oh         1 DNJ      -0.584800
      4 C3           2.0340     0.0000     1.4450 c3         1 DNJ       0.155100
      5 O3           3.4580     0.1040     1.4560 oh         1 DNJ      -0.586800
      6 C4           1.4250     1.1940     2.1830 c3         1 DNJ       0.180100
      7 O4           1.8040     1.1490     3.5610 oh         1 DNJ      -0.588800
      8 C5          -0.0990     1.1320     2.0720 c3         1 DNJ       0.094500
      9 C6          -0.7160     2.3020     2.8400 c3         1 DNJ       0.222400
     10 O6          -2.1390     2.2420     2.7390 oh         1 DNJ      -0.601800
     11 N5          -0.4960     1.2110     0.6620 n7         1 DNJ      -0.568200
     12 H11         -0.3590    -0.0220    -1.0220 h1         1 DNJ       0.016700
     13 H12         -0.3590    -0.8730     0.5320 h1         1 DNJ       0.016700
     14 H2           1.8890     0.8880    -0.5060 h1         1 DNJ       0.020700
     15 HO2          2.3440    -0.9230    -1.5210 ho         1 DNJ       0.394000
     16 H3           1.7300    -0.9180     1.9320 h1         1 DNJ       0.022700
     17 HO3          3.8260    -0.6630     1.8610 ho         1 DNJ       0.399000
     18 H4           1.7800     2.1140     1.7350 h1         1 DNJ       0.023700
     19 HO4          2.5090     1.7570     3.7130 ho         1 DNJ       0.398000
     20 H5          -0.4500     0.1960     2.4900 h1         1 DNJ       0.027700
     21 H61         -0.4260     2.2430     3.8820 h1         1 DNJ      -0.001300
     22 H62         -0.3630     3.2360     2.4190 h1         1 DNJ      -0.001300
     23 HO6         -2.5230     2.8700     3.3290 ho         1 DNJ       0.395000
     24 HN5         -1.4940     1.2410     0.5980 hn         1 DNJ       0.277800
@<TRIPOS>BOND
     1     1     2 1   
     2     1    11 1   
     3     1    12 1   
     4     1    13 1   
     5     2     3 1   
     6     2     4 1   
     7     2    14 1   
     8     3    15 1   
     9     4     5 1   
    10     4     6 1   
    11     4    16 1   
    12     5    17 1   
    13     6     7 1   
    14     6     8 1   
    15     6    18 1   
    16     7    19 1   
    17     8     9 1   
    18     8    11 1   
    19     8    20 1   
    20     9    10 1   
    21     9    21 1   
    22     9    22 1   
    23    10    23 1   
    24    11    24 1   
@<TRIPOS>SUBSTRUCTURE
     1 DNJ         1 TEMP              0 ****  ****    0 ROOT
