@<TRIPOS>MOLECULE
DNK
   51    54     1     0     0
SMALL
bcc


@<TRIPOS>ATOM
      1 C10          0.0000     0.0000     0.0000 c3         1 DNK      -0.067900
      2 C11          1.5330     0.0000     0.0000 c3         1 DNK       0.048500
      3 C13          2.8690     0.9410     1.8220 c          1 DNK       0.602100
      4 C15          3.8680     3.2010     1.6060 c3         1 DNK      -0.039700
      5 C16          4.5570     4.1660     0.6400 c3         1 DNK      -0.004100
      6 C17          2.6370     3.8760     2.2120 c3         1 DNK      -0.004100
      7 C18          4.6350     1.3410     0.1550 ca         1 DNK      -0.087300
      8 C19          5.7270     0.9260     0.8940 ca         1 DNK      -0.098500
      9 C20          6.8210     0.3700     0.2570 ca         1 DNK      -0.097500
     10 C21          6.8220     0.2300    -1.1190 ca         1 DNK      -0.100000
     11 C22          5.7300     0.6450    -1.8570 ca         1 DNK      -0.097500
     12 C23          4.6370     1.2010    -1.2210 ca         1 DNK      -0.098500
     13 C25          1.5180    -1.0420     2.3050 c3         1 DNK       0.048500
     14 C26         -0.0150    -1.0360     2.2870 c3         1 DNK      -0.067900
     15 C1          -1.1490    -3.7230    -1.5710 ca         1 DNK      -0.088000
     16 C2          -1.1130    -2.7970    -0.5410 ca         1 DNK       0.052100
     17 C3          -2.2560    -2.0660    -0.2260 ca         1 DNK       0.052100
     18 C4          -3.4220    -2.2660    -0.9440 ca         1 DNK      -0.088000
     19 C5          -3.4510    -3.1920    -1.9720 ca         1 DNK      -0.100500
     20 C6          -2.3180    -3.9180    -2.2840 ca         1 DNK      -0.100500
     21 O7          -1.9650    -1.2280     0.8140 os         1 DNK      -0.299400
     22 C8          -0.5060    -1.1620     0.8490 c3         1 DNK       0.359600
     23 O9          -0.1070    -2.4210     0.3030 os         1 DNK      -0.299400
     24 N12          2.0050     0.0000     1.3910 n          1 DNK      -0.156800
     25 C14          3.4390     1.9420     0.8500 c3         1 DNK      -0.069400
     26 O24          3.1870     0.9820     2.9910 o          1 DNK      -0.646100
     27 H1          -0.3600    -0.1130    -1.0150 hc         1 DNK       0.041200
     28 H2          -0.3600     0.9330     0.4160 hc         1 DNK       0.041200
     29 H3           1.8960    -0.8870    -0.5060 h1         1 DNK       0.040950
     30 H4           1.8950     0.8870    -0.5060 h1         1 DNK       0.040950
     31 H5           4.5590     2.9240     2.3940 hc         1 DNK       0.053700
     32 H6           5.5400     3.7860     0.3900 hc         1 DNK       0.006533
     33 H7           4.6540     5.1380     1.1090 hc         1 DNK       0.006533
     34 H8           3.9650     4.2580    -0.2620 hc         1 DNK       0.006533
     35 H9           2.9040     4.8640     2.5650 hc         1 DNK       0.006533
     36 H10          1.8630     3.9590     1.4580 hc         1 DNK       0.006533
     37 H11          2.2710     3.2820     3.0410 hc         1 DNK       0.006533
     38 H12          5.7260     1.0360     1.9720 ha         1 DNK       0.114500
     39 H13          7.6770     0.0440     0.8350 ha         1 DNK       0.104000
     40 H14          7.6790    -0.2060    -1.6180 ha         1 DNK       0.103000
     41 H15          5.7310     0.5350    -2.9350 ha         1 DNK       0.104000
     42 H16          3.7810     1.5270    -1.7990 ha         1 DNK       0.114500
     43 H17          1.8700    -0.8370     3.3090 h1         1 DNK       0.040950
     44 H18          1.8800    -2.0090     1.9780 h1         1 DNK       0.040950
     45 H19         -0.3760    -0.1060     2.7110 hc         1 DNK       0.041200
     46 H20         -0.3850    -1.8710     2.8690 hc         1 DNK       0.041200
     47 H21         -0.2620    -4.2940    -1.8180 ha         1 DNK       0.112000
     48 H22         -4.3120    -1.6980    -0.7020 ha         1 DNK       0.112000
     49 H23         -4.3640    -3.3480    -2.5330 ha         1 DNK       0.108000
     50 H24         -2.3450    -4.6420    -3.0890 ha         1 DNK       0.108000
     51 H25          2.6870     2.2000     0.1150 hc         1 DNK       0.045700
@<TRIPOS>BOND
     1     1     2 1   
     2     1    22 1   
     3     1    27 1   
     4     1    28 1   
     5     2    24 1   
     6     2    29 1   
     7     2    30 1   
     8     3    24 1   
     9     3    25 1   
    10     3    26 2   
    11     4     5 1   
    12     4     6 1   
    13     4    25 1   
    14     4    31 1   
    15     5    32 1   
    16     5    33 1   
    17     5    34 1   
    18     6    35 1   
    19     6    36 1   
    20     6    37 1   
    21     7     8 ar  
    22     7    12 ar  
    23     7    25 1   
    24     8     9 ar  
    25     8    38 1   
    26     9    10 ar  
    27     9    39 1   
    28    10    11 ar  
    29    10    40 1   
    30    11    12 ar  
    31    11    41 1   
    32    12    42 1   
    33    13    14 1   
    34    13    24 1   
    35    13    43 1   
    36    13    44 1   
    37    14    22 1   
    38    14    45 1   
    39    14    46 1   
    40    15    16 ar  
    41    15    20 ar  
    42    15    47 1   
    43    16    17 ar  
    44    16    23 1   
    45    17    18 ar  
    46    17    21 1   
    47    18    19 ar  
    48    18    48 1   
    49    19    20 ar  
    50    19    49 1   
    51    20    50 1   
    52    21    22 1   
    53    22    23 1   
    54    25    51 1   
@<TRIPOS>SUBSTRUCTURE
     1 DNK         1 TEMP              0 ****  ****    0 ROOT
