@<TRIPOS>MOLECULE
DNM
   25    24     1     0     0
SMALL
bcc


@<TRIPOS>ATOM
      1 C          -0.2800   -0.1670    0.3000 c         1 DNM      0.934600
      2 N           1.7070   -1.3190   -0.7660 n4        1 DNM     -0.757000
      3 O          -0.7240    0.7320    1.0320 o         1 DNM     -0.759300
      4 C1          2.5640   -0.9640   -1.9050 c3        1 DNM      0.088100
      5 CA          1.3130   -0.1470    0.0870 c3        1 DNM     -0.067500
      6 CB          2.0020   -0.1350    1.4380 c3        1 DNM     -0.096400
      7 CD          4.1060    0.2600    2.7220 c3        1 DNM     -0.080400
      8 CE          5.5890    0.5120    2.6410 c3        1 DNM     -0.094100
      9 CG          3.4890    0.1280    1.3450 c3        1 DNM     -0.087400
     10 OXT        -0.8860   -1.0810   -0.3220 o         1 DNM     -0.759300
     11 HA          1.5490    0.7960   -0.4780 hx        1 DNM      0.088700
     12 HB          1.5000    0.6830    2.0310 hc        1 DNM      0.085200
     13 HBA         1.8130   -1.0940    1.9900 hc        1 DNM      0.085200
     14 H1          3.5030   -0.4750   -1.5310 hx        1 DNM      0.084700
     15 H1A         2.0160   -0.2490   -2.5750 hx        1 DNM      0.084700
     16 H1B         2.8240   -1.8900   -2.4820 hx        1 DNM      0.084700
     17 HD          3.9130   -0.6770    3.3090 hc        1 DNM      0.048200
     18 HDA         3.6080    1.1020    3.2720 hc        1 DNM      0.048200
     19 HE          5.8000    1.4550    2.0800 hc        1 DNM      0.034367
     20 HEA         6.1070   -0.3290    2.1200 hc        1 DNM      0.034367
     21 HEB         6.0200    0.6100    3.6670 hc        1 DNM      0.034367
     22 HG          3.6710    1.0710    0.7630 hc        1 DNM      0.026700
     23 HGA         3.9990   -0.7050    0.7910 hc        1 DNM      0.026700
     24 HN          0.7980   -1.7260   -1.1060 hn        1 DNM      0.456300
     25 H2          2.1710   -2.0170   -0.1840 hn        1 DNM      0.456300
@<TRIPOS>BOND
     1    1    3 1
     2    1    5 1
     3    1   10 1
     4    2    4 1
     5    2    5 1
     6    2   24 1
     7    2   25 1
     8    4   14 1
     9    4   15 1
    10    4   16 1
    11    5    6 1
    12    5   11 1
    13    6    9 1
    14    6   12 1
    15    6   13 1
    16    7    8 1
    17    7    9 1
    18    7   17 1
    19    7   18 1
    20    8   19 1
    21    8   20 1
    22    8   21 1
    23    9   22 1
    24    9   23 1
@<TRIPOS>SUBSTRUCTURE
     1 DNM         1 TEMP              0 ****  ****    0 ROOT
