@<TRIPOS>MOLECULE
DNN
   34    33     1     0     0
SMALL
bcc


@<TRIPOS>ATOM
      1 C1         -1.8300   -1.3650   -3.6920 c         1 DNN      0.683100
      2 O1         -2.5880   -2.1470   -2.8980 oh        1 DNN     -0.561100
      3 O2         -1.6530   -1.7590   -4.8610 o         1 DNN     -0.685000
      4 C2         -1.3180   -0.1150   -3.0500 c3        1 DNN     -0.139400
      5 C3          0.1980   -0.0360   -3.1270 c3        1 DNN     -0.077400
      6 C4          0.7030    1.3390   -3.5230 c3        1 DNN     -0.085400
      7 C5          1.1760    1.4080   -4.9630 c3        1 DNN     -0.085400
      8 C6          0.0290    1.3220   -5.9480 c3        1 DNN     -0.095400
      9 C7          0.4490    0.9290   -7.3760 c3        1 DNN      0.195500
     10 C8          0.7350   -0.6260   -7.4140 c3        1 DNN      0.058500
     11 C9          1.5650   -1.0370   -8.6180 c3        1 DNN     -0.139100
     12 N7          1.5080    1.7500   -7.8730 n3        1 DNN     -0.913800
     13 N8         -0.5540   -1.3950   -7.3800 n4        1 DNN     -0.834600
     14 H21        -1.8010    0.7500   -3.5830 hc        1 DNN      0.096700
     15 H22        -1.6560   -0.0800   -1.9790 hc        1 DNN      0.096700
     16 H31         0.6180   -0.3050   -2.1200 hc        1 DNN      0.055700
     17 H32         0.5850   -0.8030   -3.8510 hc        1 DNN      0.055700
     18 H41         1.5720    1.6070   -2.8620 hc        1 DNN      0.064700
     19 H42        -0.0870    2.1160   -3.3500 hc        1 DNN      0.064700
     20 H51         1.9180    0.5870   -5.1470 hc        1 DNN      0.051700
     21 H52         1.7190    2.3810   -5.1110 hc        1 DNN      0.051700
     22 H61        -0.7330    0.5910   -5.5680 hc        1 DNN      0.060200
     23 H62        -0.4770    2.3250   -6.0030 hc        1 DNN      0.060200
     24 H7         -0.4380    1.1150   -8.0600 h1        1 DNN      0.064700
     25 H8          1.2860   -0.9040   -6.4650 hx        1 DNN      0.108700
     26 H91         1.6360   -2.1500   -8.7100 hc        1 DNN      0.076033
     27 H92         2.6080   -0.6510   -8.4940 hc        1 DNN      0.076033
     28 H93         1.1410   -0.6250   -9.5670 hc        1 DNN      0.076033
     29 HN71       -2.8970   -2.9360   -3.3790 ho        1 DNN      0.460000
     30 HN72        2.3150    1.7610   -7.2870 hn        1 DNN      0.385300
     31 HN81       -0.3820   -2.3590   -7.0780 hn        1 DNN      0.462800
     32 HN82       -0.9890   -1.4020   -8.3040 hn        1 DNN      0.462800
     33 H73         1.7420    1.5580   -8.8240 hn        1 DNN      0.385300
     34 H83        -1.2020   -0.9650   -6.6990 hn        1 DNN      0.462800
@<TRIPOS>BOND
     1    1    2 1   
     2    1    3 2   
     3    1    4 1   
     4    2   29 1   
     5    4    5 1   
     6    4   14 1   
     7    4   15 1   
     8    5    6 1   
     9    5   16 1   
    10    5   17 1   
    11    6    7 1   
    12    6   18 1   
    13    6   19 1   
    14    7    8 1   
    15    7   20 1   
    16    7   21 1   
    17    8    9 1   
    18    8   22 1   
    19    8   23 1   
    20    9   10 1   
    21    9   12 1   
    22    9   24 1   
    23   10   11 1   
    24   10   13 1   
    25   10   25 1   
    26   11   26 1   
    27   11   27 1   
    28   11   28 1   
    29   12   30 1   
    30   12   33 1   
    31   13   31 1   
    32   13   32 1   
    33   13   34 1   
@<TRIPOS>SUBSTRUCTURE
     1 DNN         1 TEMP              0 ****  ****    0 ROOT
