@<TRIPOS>MOLECULE
DNQ
   20    21     1     0     0
SMALL
bcc


@<TRIPOS>ATOM
      1 O1         -0.0570    0.3720    0.0150 o         1 DNQ     -0.380100
      2 O2          1.3130   -0.2220    2.3910 o         1 DNQ     -0.380100
      3 C1          1.1570    0.1820    0.0180 c         1 DNQ      0.572500
      4 C2          1.9150   -0.0690    1.3310 c         1 DNQ      0.572500
      5 N1          1.8990    0.1790   -1.2080 nc        1 DNQ     -0.270400
      6 N2          3.3480   -0.1090    1.2930 nc        1 DNQ     -0.270400
      7 C3          3.1940    0.0730   -1.1580 ca        1 DNQ      0.036000
      8 C4          3.9470   -0.0420    0.1410 ca        1 DNQ      0.036000
      9 C5          3.9770    0.0430   -2.4000 ca        1 DNQ     -0.038000
     10 C6          5.4140   -0.0570    0.0740 ca        1 DNQ     -0.038000
     11 C7          5.3300   -0.0300   -2.3770 ca        1 DNQ     -0.121200
     12 C8          6.0640   -0.0240   -1.1150 ca        1 DNQ     -0.121200
     13 N3          6.0660   -0.1590   -3.6790 no        1 DNQ      0.320200
     14 N4          7.5640    0.0600   -1.1120 no        1 DNQ      0.320200
     15 O3          5.6490    0.4590   -4.6170 o         1 DNQ     -0.163500
     16 O4          8.1530   -0.5620   -0.2750 o         1 DNQ     -0.163500
     17 O5          7.0010   -0.9020   -3.7350 o         1 DNQ     -0.163500
     18 O6          8.0960    0.7730   -1.9100 o         1 DNQ     -0.163500
     19 H51         3.4130    0.0720   -3.3560 ha        1 DNQ      0.209000
     20 H61         5.9650   -0.0860    1.0370 ha        1 DNQ      0.209000
@<TRIPOS>BOND
     1    1    3 2
     2    2    4 2
     3    3    4 1
     4    3    5 1
     5    4    6 1
     6    5    7 2
     7    6    8 2
     8    7    8 ar
     9    7    9 ar
    10    8   10 ar
    11    9   11 ar
    12    9   19 1
    13   10   12 ar
    14   10   20 1
    15   11   12 ar
    16   11   13 1
    17   12   14 1
    18   13   15 1
    19   13   17 1
    20   14   16 1
    21   14   18 1
@<TRIPOS>SUBSTRUCTURE
     1 DNQ         1 TEMP              0 ****  ****    0 ROOT
