@<TRIPOS>MOLECULE
DNT
   38    38     1     0     0
SMALL
bcc


@<TRIPOS>ATOM
      1 C13          0.0000     0.0000     0.0000 c3         1 DNT       0.006900
      2 C12          1.5300     0.0000     0.0000 c3         1 DNT      -0.027400
      3 C11          2.0400     0.0000     1.4430 c3         1 DNT      -0.028400
      4 C9           3.5700     0.0010     1.4430 c3         1 DNT      -0.032400
      5 C8           4.0800     0.0010     2.8850 c3         1 DNT      -0.025400
      6 C7           5.6100     0.0010     2.8860 c3         1 DNT       0.002600
      7 C10          6.1200    -1.3050     2.2760 c3         1 DNT      -0.001100
      8 C6           6.1120     0.1250     4.3010 ca         1 DNT      -0.152300
      9 C1           6.9130     1.1980     4.6620 ca         1 DNT       0.275100
     10 O1           7.2430     2.1410     3.7410 oh         1 DNT      -0.475100
     11 C2           7.3700     1.3120     5.9680 ca         1 DNT      -0.514200
     12 C3           7.0340     0.3510     6.9020 ca         1 DNT       0.093000
     13 C4           6.2380    -0.7200     6.5380 ca         1 DNT      -0.486200
     14 C5           5.7780    -0.8340     5.2390 ca         1 DNT       0.060000
     15 N4           5.8800    -1.7490     7.5410 no         1 DNT       1.051200
     16 O61          5.1800    -2.6920     7.2220 o          1 DNT      -0.441000
     17 O41          6.2850    -1.6490     8.6850 o          1 DNT      -0.441000
     18 N6           8.2200     2.4590     6.3570 no         1 DNT       1.053200
     19 O62          8.6240     2.5560     7.5030 o          1 DNT      -0.438500
     20 O42          8.5160     3.3060     5.5340 o          1 DNT      -0.438500
     21 H131        -0.3610    -0.0000    -1.0210 hc         1 DNT       0.001367
     22 H132        -0.3610     0.8850     0.5110 hc         1 DNT       0.001367
     23 H133        -0.3610    -0.8840     0.5110 hc         1 DNT       0.001367
     24 H121         1.8910    -0.8850    -0.5110 hc         1 DNT       0.012200
     25 H122         1.8910     0.8850    -0.5110 hc         1 DNT       0.012200
     26 H111         1.6800    -0.8850     1.9540 hc         1 DNT       0.016200
     27 H112         1.6780     0.8840     1.9540 hc         1 DNT       0.016200
     28 H91          3.9320    -0.8820     0.9320 hc         1 DNT       0.019200
     29 H92          3.9300     0.8870     0.9330 hc         1 DNT       0.019200
     30 H81          3.7190     0.8850     3.3970 hc         1 DNT       0.021200
     31 H82          3.7190    -0.8840     3.3960 hc         1 DNT       0.021200
     32 H7           5.9700     0.8380     2.3000 hc         1 DNT       0.050700
     33 H101         6.2130    -1.1910     1.2030 hc         1 DNT       0.010700
     34 H102         7.0880    -1.5470     2.6980 hc         1 DNT       0.010700
     35 H103         5.4220    -2.1040     2.4950 hc         1 DNT       0.010700
     36 HO1          8.1040     1.9610     3.4010 ho         1 DNT       0.432000
     37 H3           7.3910     0.4380     7.9210 ha         1 DNT       0.160000
     38 H5           5.1550    -1.6740     4.9570 ha         1 DNT       0.144000
@<TRIPOS>BOND
     1     1     2 1   
     2     1    21 1   
     3     1    22 1   
     4     1    23 1   
     5     2     3 1   
     6     2    24 1   
     7     2    25 1   
     8     3     4 1   
     9     3    26 1   
    10     3    27 1   
    11     4     5 1   
    12     4    28 1   
    13     4    29 1   
    14     5     6 1   
    15     5    30 1   
    16     5    31 1   
    17     6     7 1   
    18     6     8 1   
    19     6    32 1   
    20     7    33 1   
    21     7    34 1   
    22     7    35 1   
    23     8     9 ar  
    24     8    14 ar  
    25     9    10 1   
    26     9    11 ar  
    27    10    36 1   
    28    11    12 ar  
    29    11    18 1   
    30    12    13 ar  
    31    12    37 1   
    32    13    14 ar  
    33    13    15 1   
    34    14    38 1   
    35    15    16 1   
    36    15    17 1   
    37    18    19 1   
    38    18    20 1   
@<TRIPOS>SUBSTRUCTURE
     1 DNT         1 TEMP              0 ****  ****    0 ROOT
