@<TRIPOS>MOLECULE
molecule
   47    50     1     0     0
SMALL
bcc


@<TRIPOS>ATOM
      1 C10          0.0000     0.0000     0.0000 c3         1 DNV       0.137400
      2 C15         -4.1030    -0.6640    -1.4420 cc         1 DNV      -0.285600
      3 C17         -2.3530    -2.4900    -1.4420 c3         1 DNV       0.031600
      4 C20          4.1980     0.6770     0.2330 cc         1 DNV      -0.285800
      5 C21          5.3520     1.4980     0.6100 ca         1 DNV       0.380100
      6 C22          5.0720     1.9800     1.9050 ca         1 DNV      -0.111500
      7 C28          7.3820     2.5990     0.5730 ca         1 DNV       0.366200
      8 C02          2.2730    -1.7100     3.1150 ca         1 DNV       0.037400
      9 C03          2.4610    -3.0140     3.5370 ca         1 DNV      -0.124000
     10 C04          2.5950    -4.0270     2.6060 ca         1 DNV      -0.126000
     11 C05          2.5420    -3.7380     1.2540 ca         1 DNV      -0.140000
     12 C06          2.3540    -2.4340     0.8340 ca         1 DNV      -0.095000
     13 C07          2.2140    -1.4210     1.7640 ca         1 DNV      -0.095300
     14 C08          2.0100     0.0000     1.3050 c3         1 DNV       0.261600
     15 C18          3.3390     0.7100     1.2630 cd         1 DNV      -0.085300
     16 C23          6.0120     2.8090     2.5370 ca         1 DNV      -0.085600
     17 C27          7.1860     3.1150     1.8430 ca         1 DNV      -0.213300
     18 N19          3.8470     1.4850     2.2700 na         1 DNV      -0.143400
     19 N29          6.4870     1.8230     0.0010 nb         1 DNV      -0.689000
     20 O09          1.4290     0.0000     0.0000 os         1 DNV      -0.415600
     21 O25          6.6860     4.1340     4.4800 o          1 DNV      -0.838800
     22 O26          4.7420     3.0620     4.4790 o          1 DNV      -0.838800
     23 Cl1          2.1030    -0.4370     4.2840 cl         1 DNV      -0.089400
     24 C11         -0.5100     0.0010    -1.4420 c3         1 DNV      -0.092700
     25 C12         -2.0180     0.0000    -1.4430 cc         1 DNV       0.404800
     26 C14         -4.0650     0.6820    -1.4420 cd         1 DNV       0.311200
     27 N13         -2.7780     1.0610    -1.4430 nd         1 DNV      -0.689000
     28 N16         -2.8040    -1.0970    -1.4420 na         1 DNV      -0.183900
     29 H1          -0.3610    -0.8850     0.5100 h1         1 DNV       0.034200
     30 H2          -0.3610     0.8840     0.5110 h1         1 DNV       0.034200
     31 H3          -4.9910    -1.2840    -1.4410 h4         1 DNV       0.167000
     32 H4          -1.9380    -2.7360    -0.4720 h1         1 DNV       0.052700
     33 H5          -1.5950    -2.6240    -2.2040 h1         1 DNV       0.052700
     34 H6          -3.1930    -3.1420    -1.6510 h1         1 DNV       0.052700
     35 H7           3.9940     0.2810    -0.7550 ha         1 DNV       0.149000
     36 H8           8.2940     2.8390     0.0390 h4         1 DNV      -0.002900
     37 H9           2.5040    -3.2410     4.5950 ha         1 DNV       0.141000
     38 H10          2.7420    -5.0490     2.9350 ha         1 DNV       0.126000
     39 H11          2.6500    -4.5320     0.5260 ha         1 DNV       0.125000
     40 H12          2.3110    -2.2070    -0.2250 ha         1 DNV       0.150000
     41 H13          1.3490     0.5110     1.9950 h1         1 DNV       0.061700
     42 H14          7.9370     3.7510     2.2950 ha         1 DNV       0.159000
     43 H15          3.3920     1.6640     3.1430 hn         1 DNV       0.327700
     44 H17         -0.1490    -0.8830    -1.9530 hc         1 DNV       0.071700
     45 H18         -0.1490     0.8860    -1.9520 hc         1 DNV       0.071700
     46 H19         -4.9230     1.3430    -1.4420 h4         1 DNV       0.037100
     47 C24          5.7690     3.3400     3.8930 c          1 DNV       0.888200
@<TRIPOS>BOND
     1     3    28 1
     2     2    28 1
     3     2    26 2
     4    28    25 1
     5    26    27 1
     6    25    27 2
     7    25    24 1
     8    24     1 1
     9     1    20 1
    10    20    14 1
    11    12    11 ar
    12    12    13 ar
    13     4     5 1
    14     4    15 2
    15    19     5 ar
    16    19     7 ar
    17    11    10 ar
    18    14    13 1
    19    14    15 1
    20     5     6 ar
    21    13     8 ar
    22    15    18 1
    23     7    17 ar
    24    10     9 ar
    25     6    18 1
    26     6    16 ar
    27     8     9 ar
    28     8    23 1
    29    17    16 ar
    30    16    47 1
    31    47    22 1
    32    47    21 1
    33     1    29 1
    34     1    30 1
    35     2    31 1
    36     3    32 1
    37     3    33 1
    38     3    34 1
    39     4    35 1
    40     7    36 1
    41     9    37 1
    42    10    38 1
    43    11    39 1
    44    12    40 1
    45    14    41 1
    46    17    42 1
    47    18    43 1
    48    24    44 1
    49    24    45 1
    50    26    46 1
@<TRIPOS>SUBSTRUCTURE
     1 DNV         1 TEMP              0 ****  ****    0 ROOT
