@<TRIPOS>MOLECULE
molecule
   17    17     1     0     0
SMALL
bcc


@<TRIPOS>ATOM
      1 C1           0.0000     0.0000     0.0000 ca         1 DNX       0.153100
      2 C2           1.3870     0.0000     0.0000 ca         1 DNX      -0.119000
      3 C3           2.0770     0.0000     1.1970 ca         1 DNX      -0.078200
      4 N3           3.5570    -0.0010     1.1980 no         1 DNX       0.286200
      5 C4           1.3850     0.0010     2.3950 ca         1 DNX      -0.129200
      6 N4           2.1270     0.0020     3.6750 no         1 DNX       0.286200
      7 C5           0.0030     0.0020     2.3970 ca         1 DNX      -0.055000
      8 C6          -0.6920     0.0010     1.2020 ca         1 DNX      -0.133000
      9 O1          -0.6800     0.0050    -1.1760 oh         1 DNX      -0.506100
     10 O31          4.1670     0.8240     0.5420 o          1 DNX      -0.162500
     11 O32          4.1650    -0.8260     1.8560 o          1 DNX      -0.162500
     12 O41          1.5250    -0.1230     4.7270 o          1 DNX      -0.176500
     13 O42          3.3380     0.1270     3.6780 o          1 DNX      -0.176500
     14 H2           1.9300    -0.0010    -0.9380 ha         1 DNX       0.182000
     15 H5          -0.5370     0.0030     3.3360 ha         1 DNX       0.184000
     16 H6          -1.7750     0.0010     1.2050 ha         1 DNX       0.169000
     17 HO1         -0.8030    -0.8810    -1.4730 ho         1 DNX       0.438000
@<TRIPOS>BOND
     1     1     2 ar
     2     1     8 ar
     3     1     9 1
     4     2     3 ar
     5     3     4 1
     6     3     5 ar
     7     4    10 1
     8     4    11 1
     9     5     6 1
    10     5     7 ar
    11     6    12 1
    12     6    13 1
    13     7     8 ar
    14     2    14 1
    15     7    15 1
    16     8    16 1
    17     9    17 1
@<TRIPOS>SUBSTRUCTURE
     1 DNX         1 TEMP              0 ****  ****    0 ROOT
