@<TRIPOS>MOLECULE
DNX
   17    17     1     0     0
SMALL
bcc


@<TRIPOS>ATOM
      1 C1           0.0000     0.0000     0.0000 ca         1 DNX       0.178100
      2 C2           1.3870     0.0000     0.0000 ca         1 DNX      -0.080000
      3 C3           2.0770     0.0000     1.1970 ca         1 DNX      -0.319200
      4 N3           3.5570    -0.0010     1.1980 no         1 DNX       1.025200
      5 C4           1.3850     0.0010     2.3950 ca         1 DNX      -0.399200
      6 N4           2.1270     0.0020     3.6750 no         1 DNX       1.029200
      7 C5           0.0030     0.0020     2.3970 ca         1 DNX       0.007000
      8 C6          -0.6920     0.0010     1.2020 ca         1 DNX      -0.115000
      9 O1          -0.6800     0.0050    -1.1760 oh         1 DNX      -0.490100
     10 O31          4.1670     0.8240     0.5420 o          1 DNX      -0.411500
     11 O32          4.1650    -0.8260     1.8560 o          1 DNX      -0.411500
     12 O41          1.5250    -0.1230     4.7270 o          1 DNX      -0.425500
     13 O42          3.3380     0.1270     3.6780 o          1 DNX      -0.425500
     14 H2           1.9300    -0.0010    -0.9380 ha         1 DNX       0.142000
     15 H5          -0.5370     0.0030     3.3360 ha         1 DNX       0.143000
     16 H6          -1.7750     0.0010     1.2050 ha         1 DNX       0.132000
     17 HO1         -0.8030    -0.8810    -1.4730 ho         1 DNX       0.420000
@<TRIPOS>BOND
     1     1     2 ar  
     2     1     8 ar  
     3     1     9 1   
     4     2     3 ar  
     5     2    14 1   
     6     3     4 1   
     7     3     5 ar  
     8     4    10 1   
     9     4    11 1   
    10     5     6 1   
    11     5     7 ar  
    12     6    12 1   
    13     6    13 1   
    14     7     8 ar  
    15     7    15 1   
    16     8    16 1   
    17     9    17 1   
@<TRIPOS>SUBSTRUCTURE
     1 DNX         1 TEMP              0 ****  ****    0 ROOT
