@<TRIPOS>MOLECULE
molecule
   52    55     1     0     0
SMALL
bcc


@<TRIPOS>ATOM
      1 C10          0.0000     0.0000     0.0000 ca         1 DO1      -0.139000
      2 C13          1.3820     0.0020     2.3950 ca         1 DO1       0.036400
      3 C17          4.7490    -2.4890    -1.3270 c3         1 DO1       0.165800
      4 C20          8.4550    -1.9180    -0.9770 c3         1 DO1      -0.078400
      5 C21          8.8360    -1.9380    -2.4600 c3         1 DO1      -0.081400
      6 C24          7.7300    -1.2580    -3.2720 c3         1 DO1      -0.078400
      7 C26          4.2590     2.2600     0.2980 cc         1 DO1      -0.277800
      8 C03          5.3270     4.3380     3.0680 ca         1 DO1      -0.087600
      9 C04          4.8630     3.2960     2.2510 ca         1 DO1      -0.112500
     10 C06          4.0880     1.4080     1.3220 cd         1 DO1      -0.083300
     11 C07          3.5810    -0.0050     1.1970 c3         1 DO1       0.255600
     12 C08          2.0750     0.0000     1.1970 ca         1 DO1      -0.095300
     13 C09          1.3830     0.0000     0.0000 ca         1 DO1      -0.094000
     14 C11         -0.6920     0.0050     1.1970 ca         1 DO1      -0.127000
     15 C12         -0.0010     0.0070     2.3950 ca         1 DO1      -0.125000
     16 C19          7.1070    -2.6180    -0.7920 c3         1 DO1       0.165800
     17 C25          6.4020    -1.9780    -3.0200 c3         1 DO1       0.165800
     18 C27          4.7660     3.5130     0.8620 ca         1 DO1       0.380100
     19 C29          5.5460     5.6750     1.0840 ca         1 DO1       0.364200
     20 C30          5.6710     5.5460     2.4560 ca         1 DO1      -0.214300
     21 N05          4.4450     2.0130     2.4960 na         1 DO1      -0.145400
     22 N18          6.0820    -1.9300    -1.5870 n3         1 DO1      -0.707600
     23 N28          5.1090     4.6840     0.3380 nb         1 DO1      -0.689000
     24 O01          5.1420     3.1060     5.0430 o          1 DO1      -0.839800
     25 O15          4.0550    -0.5750    -0.0250 os         1 DO1      -0.391600
     26 O31          5.8970     5.1780     5.2960 o          1 DO1      -0.839800
     27 Cl1          2.2500     0.0020     3.8980 cl         1 DO1      -0.092400
     28 H1          -0.5420    -0.0010    -0.9380 ha         1 DO1       0.125000
     29 H2           4.8070    -3.5700    -1.3150 h1         1 DO1       0.036700
     30 H3           4.0670    -2.1720    -2.1060 h1         1 DO1       0.036700
     31 H5           9.2130    -2.4370    -0.4040 hc         1 DO1       0.051950
     32 H6           8.9470    -2.9640    -2.7900 hc         1 DO1       0.033700
     33 H7           9.7670    -1.4030    -2.6010 hc         1 DO1       0.033700
     34 H8           7.6420    -0.2230    -2.9650 hc         1 DO1       0.051950
     35 H9           7.9730    -1.3090    -4.3260 hc         1 DO1       0.051950
     36 H10          3.9090     2.1140    -0.7170 ha         1 DO1       0.149000
     37 H11          3.9400    -0.5930     2.0330 h1         1 DO1       0.056700
     38 H12          1.9240    -0.0030    -0.9380 ha         1 DO1       0.152000
     39 H13         -1.7750     0.0070     1.1970 ha         1 DO1       0.126000
     40 H14         -0.5430     0.0100     3.3330 ha         1 DO1       0.140000
     41 H17          6.8290    -2.5900     0.2550 h1         1 DO1       0.027700
     42 H18          7.1880    -3.6470    -1.1220 h1         1 DO1       0.027700
     43 H19          6.4880    -3.0110    -3.3350 h1         1 DO1       0.027700
     44 H20          5.6150    -1.4890    -3.5810 h1         1 DO1       0.027700
     45 H21          5.8140     6.6140     0.6130 h4         1 DO1      -0.003900
     46 H22          6.0330     6.3760     3.0520 ha         1 DO1       0.158000
     47 H23          4.4070     1.5830     3.3990 hn         1 DO1       0.326700
     48 C16          4.2430    -1.9910     0.0290 c3         1 DO1       0.140400
     49 H4           8.3780    -0.8910    -0.6390 hc         1 DO1       0.051950
     50 H15          4.9700    -2.2300     0.7960 h1         1 DO1       0.025200
     51 H16          3.3010    -2.4720     0.2620 h1         1 DO1       0.025200
     52 C02          5.4480     4.1630     4.5310 c          1 DO1       0.889200
@<TRIPOS>BOND
     1     5     4 1
     2     5     6 1
     3     4    16 1
     4    16    22 1
     5     6    17 1
     6    27     2 1
     7    22    17 1
     8    22     3 1
     9     3    48 1
    10     7    18 1
    11     7    10 2
    12    48    25 1
    13    23    18 ar
    14    23    19 ar
    15    11    25 1
    16    11    10 1
    17    11    12 1
    18    18     9 ar
    19    10    21 1
    20     2    12 ar
    21     2    15 ar
    22    19    20 ar
    23    12    13 ar
    24    15    14 ar
    25     9    21 1
    26     9     8 ar
    27    20     8 ar
    28    13     1 ar
    29     8    52 1
    30    14     1 ar
    31    52    24 1
    32    52    26 1
    33     1    28 1
    34     3    29 1
    35     3    30 1
    36     4    49 1
    37     4    31 1
    38     5    32 1
    39     5    33 1
    40     6    34 1
    41     6    35 1
    42     7    36 1
    43    11    37 1
    44    13    38 1
    45    14    39 1
    46    15    40 1
    47    48    50 1
    48    48    51 1
    49    16    41 1
    50    16    42 1
    51    17    43 1
    52    17    44 1
    53    19    45 1
    54    20    46 1
    55    21    47 1
@<TRIPOS>SUBSTRUCTURE
     1 DO1         1 TEMP              0 ****  ****    0 ROOT
