@<TRIPOS>MOLECULE
DO3
   57    57     1     0     0
SMALL
bcc


@<TRIPOS>ATOM
      1 N1           0.0000     0.0000     0.0000 n3         1 DO3      -0.492100
      2 N2           2.4090     1.3170     1.9920 n3         1 DO3      -0.504600
      3 N3          -0.1750     3.3420     3.6670 n3         1 DO3      -0.492100
      4 N4          -0.7680     3.2790     0.2190 n3         1 DO3      -0.449600
      5 O1           0.0730    -3.6170    -0.8800 o          1 DO3      -0.906800
      6 O3           3.0470     3.2010    -1.1390 o          1 DO3      -0.921800
      7 O5           0.3010     4.4440     7.1870 o          1 DO3      -0.906800
      8 O7           0.3270     4.5360    -2.1100 oh         1 DO3      -0.509800
      9 C1           1.4980     0.0000     0.0000 c3         1 DO3       0.077800
     10 C2           2.0220     0.0000     1.4110 c3         1 DO3       0.122300
     11 C3           1.3000     1.5130     2.9850 c3         1 DO3       0.122300
     12 C4           1.2630     2.9310     3.5260 c3         1 DO3       0.077800
     13 C5          -0.3900     4.2090     2.4650 c3         1 DO3       0.073300
     14 C6          -1.3950     3.4960     1.5610 c3         1 DO3       0.101300
     15 C7          -1.3970     1.9870    -0.2020 c3         1 DO3       0.101300
     16 C8          -0.3540     1.1280    -0.9180 c3         1 DO3       0.073300
     17 C9           0.2090    -2.4390    -0.2490 c          1 DO3       0.976600
     18 C10         -0.2670    -1.1710    -0.9100 c3         1 DO3       0.022800
     19 C11          3.1530     2.3710    -0.0880 c          1 DO3       0.984600
     20 C12          2.0520     2.3100     0.9370 c3         1 DO3      -0.053200
     21 C13          0.1670     3.7070     6.0740 c          1 DO3       0.976600
     22 C14         -0.0580     4.3820     4.7460 c3         1 DO3       0.022800
     23 C15         -1.0600     4.1970    -2.0650 c3         1 DO3       0.163100
     24 C16         -1.5510     4.2570    -0.6170 c3         1 DO3       0.124800
     25 C17         -1.8550     5.1900    -2.9150 c3         1 DO3      -0.050100
     26 O2           0.7120    -2.3970     0.8480 o          1 DO3      -0.906800
     27 O4           4.1320     1.6740     0.0330 o          1 DO3      -0.921800
     28 O6           0.2270     2.5020     6.1360 o          1 DO3      -0.906800
     29 HO7          0.6230     4.5260    -3.0050 ho         1 DO3       0.369000
     30 HC11         1.8560     0.8830    -0.5150 h1         1 DO3       0.051450
     31 HC12         1.8550    -0.8840    -0.5150 h1         1 DO3       0.051450
     32 HC21         1.2610    -0.4330     2.0490 h1         1 DO3       0.028700
     33 HC22         2.8920    -0.6450     1.4420 h1         1 DO3       0.028700
     34 HC31         0.3540     1.2960     2.5030 h1         1 DO3       0.028700
     35 HC32         1.4410     0.8250     3.8100 h1         1 DO3       0.028700
     36 HC41         1.7680     3.5980     2.8380 h1         1 DO3       0.051450
     37 HC42         1.7500     2.9660     4.4930 h1         1 DO3       0.051450
     38 HC51        -0.7860     5.1700     2.7700 h1         1 DO3       0.036700
     39 HC52         0.5470     4.3470     1.9380 h1         1 DO3       0.036700
     40 HC61        -1.6610     2.5400     1.9960 h1         1 DO3       0.017700
     41 HC62        -2.2830     4.1060     1.4530 h1         1 DO3       0.017700
     42 HC71        -2.2220     2.1890    -0.8740 h1         1 DO3       0.017700
     43 HC72        -1.7620     1.4610     0.6710 h1         1 DO3       0.017700
     44 HC81         0.5280     1.7200    -1.1310 h1         1 DO3       0.036700
     45 HC82        -0.7680     0.7370    -1.8390 h1         1 DO3       0.036700
     46 H101        -1.3300    -1.2430    -1.1040 h1         1 DO3      -0.003050
     47 H102         0.2630    -1.0310    -1.8440 h1         1 DO3      -0.003050
     48 H121         1.1280     2.0110     0.4570 h1         1 DO3       0.050200
     49 H122         1.9240     3.2870     1.3880 h1         1 DO3       0.050200
     50 H141         0.7770     5.0360     4.5280 h1         1 DO3      -0.003050
     51 H142        -0.9710     4.9630     4.7870 h1         1 DO3      -0.003050
     52 HA          -1.2000     3.1960    -2.4530 h1         1 DO3       0.015700
     53 H161        -2.6030     4.0000    -0.5810 h1         1 DO3       0.004700
     54 H162        -1.4100     5.2580    -0.2280 h1         1 DO3       0.004700
     55 H171        -2.8340     5.3390    -2.4750 hc         1 DO3      -0.005633
     56 H172        -1.9660     4.7970    -3.9190 hc         1 DO3      -0.005633
     57 H173        -1.3280     6.1360    -2.9540 hc         1 DO3      -0.005633
@<TRIPOS>BOND
     1     1     9 1   
     2     1    16 1   
     3     1    18 1   
     4     2    10 1   
     5     2    11 1   
     6     2    20 1   
     7     3    12 1   
     8     3    13 1   
     9     3    22 1   
    10     4    14 1   
    11     4    15 1   
    12     4    24 1   
    13     5    17 1   
    14     6    19 1   
    15     7    21 1   
    16     8    23 1   
    17     8    29 1   
    18     9    10 1   
    19     9    30 1   
    20     9    31 1   
    21    10    32 1   
    22    10    33 1   
    23    11    12 1   
    24    11    34 1   
    25    11    35 1   
    26    12    36 1   
    27    12    37 1   
    28    13    14 1   
    29    13    38 1   
    30    13    39 1   
    31    14    40 1   
    32    14    41 1   
    33    15    16 1   
    34    15    42 1   
    35    15    43 1   
    36    16    44 1   
    37    16    45 1   
    38    17    18 1   
    39    17    26 1   
    40    18    46 1   
    41    18    47 1   
    42    19    20 1   
    43    19    27 1   
    44    20    48 1   
    45    20    49 1   
    46    21    22 1   
    47    21    28 1   
    48    22    50 1   
    49    22    51 1   
    50    23    24 1   
    51    23    25 1   
    52    23    52 1   
    53    24    53 1   
    54    24    54 1   
    55    25    55 1   
    56    25    56 1   
    57    25    57 1   
@<TRIPOS>SUBSTRUCTURE
     1 DO3         1 TEMP              0 ****  ****    0 ROOT
