@<TRIPOS>MOLECULE
DO4
   14    13     1     0     0
SMALL
bcc


@<TRIPOS>ATOM
      1 O3         -0.0280    0.3090   -0.0880 o         1 DO4     -0.569100
      2 C5          1.1050   -0.1570    0.0680 c         1 DO4      0.571900
      3 C4          1.8760   -0.0570    1.3400 c3        1 DO4     -0.195400
      4 C3          2.8450   -1.2030    1.5120 c3        1 DO4     -0.198400
      5 C2          3.8890   -0.9550    2.5750 c         1 DO4      0.468100
      6 O5          3.9490    0.1160    3.1880 o         1 DO4     -0.590100
      7 C1          4.8420   -2.1460    2.7710 c         1 DO4      0.856600
      8 O1          5.8420   -2.2000    2.0080 o         1 DO4     -0.810800
      9 O2          4.5250   -2.9960    3.6430 o         1 DO4     -0.810800
     10 H5          1.6230   -0.6800   -0.7710 h4        1 DO4     -0.015800
     11 H41         1.1790   -0.0070    2.2180 hc        1 DO4      0.079700
     12 H42         2.4480    0.9130    1.3290 hc        1 DO4      0.079700
     13 H31         2.2970   -2.1420    1.7900 hc        1 DO4      0.067700
     14 H32         3.3990   -1.4030    0.5560 hc        1 DO4      0.067700
@<TRIPOS>BOND
     1    1    2 2   
     2    2    3 1   
     3    2   10 1   
     4    3    4 1   
     5    3   11 1   
     6    3   12 1   
     7    4    5 1   
     8    4   13 1   
     9    4   14 1   
    10    5    6 2   
    11    5    7 1   
    12    7    8 1   
    13    7    9 1   
@<TRIPOS>SUBSTRUCTURE
     1 DO4         1 TEMP              0 ****  ****    0 ROOT
