@<TRIPOS>MOLECULE
molecule
   14    13     1     0     0
SMALL
bcc


@<TRIPOS>ATOM
      1 O3           0.0000     0.0000     0.0000 o          1 DO4      -0.555100
      2 C5           1.2070     0.0000     0.0000 c          1 DO4       0.571900
      3 C4           1.9620     0.0000     1.3040 c3         1 DO4      -0.197400
      4 C3           2.9330    -1.1820     1.3310 c3         1 DO4      -0.182400
      5 C2           3.6870    -1.1820     2.6360 c          1 DO4       0.474100
      6 O5           3.4700    -0.3250     3.4590 o          1 DO4      -0.547100
      7 C1           4.7010    -2.2390     2.9120 c          1 DO4       0.806600
      8 O1           4.9190    -3.1000     2.0860 o          1 DO4      -0.812300
      9 O2           5.3740    -2.2390     4.0780 o          1 DO4      -0.812300
     10 H5           1.7480     0.0200    -0.9380 h4         1 DO4      -0.021800
     11 H41          1.2620    -0.0880     2.1260 hc         1 DO4       0.072200
     12 H42          2.5170     0.9260     1.4000 hc         1 DO4       0.072200
     13 H31          3.6330    -1.0930     0.5100 hc         1 DO4       0.064200
     14 H32          2.3780    -2.1070     1.2350 hc         1 DO4       0.064200
@<TRIPOS>BOND
     1     1     2 2
     2     2     3 1
     3     2    10 1
     4     3     4 1
     5     3    11 1
     6     3    12 1
     7     4     5 1
     8     4    13 1
     9     4    14 1
    10     5     6 2
    11     5     7 1
    12     7     8 1
    13     7     9 1
@<TRIPOS>SUBSTRUCTURE
     1 DO4         1 TEMP              0 ****  ****    0 ROOT
