@<TRIPOS>MOLECULE
molecule
   49    52     1     0     0
SMALL
bcc


@<TRIPOS>ATOM
      1 C10          0.0000     0.0000     0.0000 c3         1 DO5      -0.110400
      2 C11          1.5330     0.0000     0.0000 c3         1 DO5       0.108000
      3 C13          2.8670    -0.9410     1.8230 c          1 DO5       0.670100
      4 C15          4.6130     0.0550     3.2430 ca         1 DO5      -0.090300
      5 C16          4.6000     1.1800     4.0470 ca         1 DO5      -0.105500
      6 C17          5.6940     2.0250     4.0710 ca         1 DO5      -0.126000
      7 C18          6.8010     1.7450     3.2910 ca         1 DO5       0.032400
      8 C20          6.8140     0.6180     2.4870 ca         1 DO5      -0.126000
      9 C21          5.7190    -0.2250     2.4630 ca         1 DO5      -0.105500
     10 C22          3.8540    -2.2670     3.6710 c3         1 DO5       0.166100
     11 C23          2.6240    -3.1690     3.7810 c3         1 DO5      -0.131100
     12 C26          1.5180     1.0440     2.3030 c3         1 DO5       0.108000
     13 C27         -0.0140     1.0390     2.2870 c3         1 DO5      -0.110400
     14 C1          -3.4450     3.2000     1.1160 ca         1 DO5      -0.114500
     15 C2          -2.2530     2.5550     0.8260 ca         1 DO5       0.047600
     16 C3          -1.1370     3.2970     0.4490 ca         1 DO5       0.047600
     17 C4          -1.2230     4.6770     0.3670 ca         1 DO5      -0.114500
     18 C5          -2.4160     5.3150     0.6570 ca         1 DO5      -0.126500
     19 C6          -3.5240     4.5780     1.0300 ca         1 DO5      -0.126500
     20 O7          -0.1000     2.4400     0.2170 os         1 DO5      -0.320400
     21 C8          -0.5060     1.1630     0.8490 c3         1 DO5       0.343600
     22 O9          -1.9170     1.2310     0.8320 os         1 DO5      -0.320400
     23 N12          2.0050     0.0000     1.3910 n          1 DO5      -0.496800
     24 C14          3.4230    -0.8700     3.2210 c3         1 DO5      -0.091400
     25 Cl           8.1750     2.8060     3.3200 cl         1 DO5      -0.111400
     26 O24          4.7640    -2.8150     2.7150 oh         1 DO5      -0.580800
     27 O25          3.1970    -1.8450     1.0850 o          1 DO5      -0.577100
     28 H1          -0.3600    -0.9330     0.4160 hc         1 DO5       0.071950
     29 H2          -0.3600     0.1120    -1.0160 hc         1 DO5       0.071950
     30 H3           1.8950    -0.8870    -0.5060 h1         1 DO5       0.067200
     31 H4           1.8950     0.8870    -0.5060 h1         1 DO5       0.067200
     32 H5           3.7330     1.3990     4.6580 ha         1 DO5       0.154000
     33 H6           5.6830     2.9060     4.7010 ha         1 DO5       0.145000
     34 H7           7.6810     0.3980     1.8750 ha         1 DO5       0.145000
     35 H8           5.7280    -1.1070     1.8340 ha         1 DO5       0.154000
     36 H9           4.3410    -2.2010     4.6360 h1         1 DO5       0.035700
     37 H10          2.8670    -4.0410     4.3770 hc         1 DO5       0.046700
     38 H11          2.3160    -3.4830     2.7910 hc         1 DO5       0.046700
     39 H12          1.8160    -2.6230     4.2540 hc         1 DO5       0.046700
     40 H13          1.8700     0.8410     3.3070 h1         1 DO5       0.067200
     41 H14          1.8810     2.0110     1.9740 h1         1 DO5       0.067200
     42 H15         -0.3760     0.1100     2.7120 hc         1 DO5       0.071950
     43 H16         -0.3830     1.8760     2.8670 hc         1 DO5       0.071950
     44 H17         -4.3140     2.6240     1.4090 ha         1 DO5       0.143000
     45 H18         -0.3560     5.2570     0.0750 ha         1 DO5       0.143000
     46 H19         -2.4820     6.3940     0.5920 ha         1 DO5       0.139000
     47 H20         -4.4560     5.0800     1.2570 ha         1 DO5       0.139000
     48 H21          2.6610    -0.4940     3.8940 hc         1 DO5       0.069700
     49 H22          5.2240    -3.5420     3.1000 ho         1 DO5       0.398000
@<TRIPOS>BOND
     1    17    18 ar
     2    17    16 ar
     3    18    19 ar
     4    26    10 1
     5    20    16 1
     6    20    21 1
     7     2    23 1
     8     2     1 1
     9    16    15 ar
    10    11    10 1
    11    24    10 1
    12    24     3 1
    13    24     4 1
    14    23    12 1
    15    23     3 1
    16    19    14 ar
    17     1    21 1
    18    12    13 1
    19     3    27 2
    20    21    13 1
    21    21    22 1
    22     9     4 ar
    23     9     8 ar
    24    15    14 ar
    25    15    22 1
    26     4     5 ar
    27     8     7 ar
    28     5     6 ar
    29     7     6 ar
    30     7    25 1
    31     1    28 1
    32     1    29 1
    33     2    30 1
    34     2    31 1
    35     5    32 1
    36     6    33 1
    37     8    34 1
    38     9    35 1
    39    10    36 1
    40    11    37 1
    41    11    38 1
    42    11    39 1
    43    12    40 1
    44    12    41 1
    45    13    42 1
    46    13    43 1
    47    14    44 1
    48    17    45 1
    49    18    46 1
    50    19    47 1
    51    24    48 1
    52    26    49 1
@<TRIPOS>SUBSTRUCTURE
     1 DO5         1 TEMP              0 ****  ****    0 ROOT
