@<TRIPOS>MOLECULE
DO5
   49    52     1     0     0
SMALL
bcc


@<TRIPOS>ATOM
      1 C10          0.0000     0.0000     0.0000 c3         1 DO5      -0.067400
      2 C11          1.5330     0.0000     0.0000 c3         1 DO5       0.050000
      3 C13          2.8670    -0.9410     1.8230 c          1 DO5       0.596100
      4 C15          4.6130     0.0550     3.2430 ca         1 DO5      -0.094300
      5 C16          4.6000     1.1800     4.0470 ca         1 DO5      -0.085500
      6 C17          5.6940     2.0250     4.0710 ca         1 DO5      -0.101000
      7 C18          6.8010     1.7450     3.2910 ca         1 DO5      -0.031600
      8 C20          6.8140     0.6180     2.4870 ca         1 DO5      -0.101000
      9 C21          5.7190    -0.2250     2.4630 ca         1 DO5      -0.085500
     10 C22          3.8540    -2.2670     3.6710 c3         1 DO5       0.212100
     11 C23          2.6240    -3.1690     3.7810 c3         1 DO5      -0.047100
     12 C26          1.5180     1.0440     2.3030 c3         1 DO5       0.050000
     13 C27         -0.0140     1.0390     2.2870 c3         1 DO5      -0.067400
     14 C1          -3.4450     3.2000     1.1160 ca         1 DO5      -0.088000
     15 C2          -2.2530     2.5550     0.8260 ca         1 DO5       0.052100
     16 C3          -1.1370     3.2970     0.4490 ca         1 DO5       0.052100
     17 C4          -1.2230     4.6770     0.3670 ca         1 DO5      -0.088000
     18 C5          -2.4160     5.3150     0.6570 ca         1 DO5      -0.100000
     19 C6          -3.5240     4.5780     1.0300 ca         1 DO5      -0.100000
     20 O7          -0.1000     2.4400     0.2170 os         1 DO5      -0.301400
     21 C8          -0.5060     1.1630     0.8490 c3         1 DO5       0.362600
     22 O9          -1.9170     1.2310     0.8320 os         1 DO5      -0.301400
     23 N12          2.0050     0.0000     1.3910 n          1 DO5      -0.163800
     24 C14          3.4230    -0.8700     3.2210 c3         1 DO5      -0.075400
     25 Cl           8.1750     2.8060     3.3200 cl         1 DO5      -0.029400
     26 O24          4.7640    -2.8150     2.7150 oh         1 DO5      -0.556800
     27 O25          3.1970    -1.8450     1.0850 o          1 DO5      -0.615100
     28 H1          -0.3600    -0.9330     0.4160 hc         1 DO5       0.040950
     29 H2          -0.3600     0.1120    -1.0160 hc         1 DO5       0.040950
     30 H3           1.8950    -0.8870    -0.5060 h1         1 DO5       0.040200
     31 H4           1.8950     0.8870    -0.5060 h1         1 DO5       0.040200
     32 H5           3.7330     1.3990     4.6580 ha         1 DO5       0.128000
     33 H6           5.6830     2.9060     4.7010 ha         1 DO5       0.115500
     34 H7           7.6810     0.3980     1.8750 ha         1 DO5       0.115500
     35 H8           5.7280    -1.1070     1.8340 ha         1 DO5       0.128000
     36 H9           4.3410    -2.2010     4.6360 h1         1 DO5       0.000700
     37 H10          2.8670    -4.0410     4.3770 hc         1 DO5       0.015367
     38 H11          2.3160    -3.4830     2.7910 hc         1 DO5       0.015367
     39 H12          1.8160    -2.6230     4.2540 hc         1 DO5       0.015367
     40 H13          1.8700     0.8410     3.3070 h1         1 DO5       0.040200
     41 H14          1.8810     2.0110     1.9740 h1         1 DO5       0.040200
     42 H15         -0.3760     0.1100     2.7120 hc         1 DO5       0.040950
     43 H16         -0.3830     1.8760     2.8670 hc         1 DO5       0.040950
     44 H17         -4.3140     2.6240     1.4090 ha         1 DO5       0.112000
     45 H18         -0.3560     5.2570     0.0750 ha         1 DO5       0.112000
     46 H19         -2.4820     6.3940     0.5920 ha         1 DO5       0.108000
     47 H20         -4.4560     5.0800     1.2570 ha         1 DO5       0.108000
     48 H21          2.6610    -0.4940     3.8940 hc         1 DO5       0.047700
     49 H22          5.2240    -3.5420     3.1000 ho         1 DO5       0.381000
@<TRIPOS>BOND
     1     1     2 1   
     2     1    21 1   
     3     1    28 1   
     4     1    29 1   
     5     2    23 1   
     6     2    30 1   
     7     2    31 1   
     8     3    23 1   
     9     3    24 1   
    10     3    27 2   
    11     4     5 ar  
    12     4     9 ar  
    13     4    24 1   
    14     5     6 ar  
    15     5    32 1   
    16     6     7 ar  
    17     6    33 1   
    18     7     8 ar  
    19     7    25 1   
    20     8     9 ar  
    21     8    34 1   
    22     9    35 1   
    23    10    11 1   
    24    10    24 1   
    25    10    26 1   
    26    10    36 1   
    27    11    37 1   
    28    11    38 1   
    29    11    39 1   
    30    12    13 1   
    31    12    23 1   
    32    12    40 1   
    33    12    41 1   
    34    13    21 1   
    35    13    42 1   
    36    13    43 1   
    37    14    15 ar  
    38    14    19 ar  
    39    14    44 1   
    40    15    16 ar  
    41    15    22 1   
    42    16    17 ar  
    43    16    20 1   
    44    17    18 ar  
    45    17    45 1   
    46    18    19 ar  
    47    18    46 1   
    48    19    47 1   
    49    20    21 1   
    50    21    22 1   
    51    24    48 1   
    52    26    49 1   
@<TRIPOS>SUBSTRUCTURE
     1 DO5         1 TEMP              0 ****  ****    0 ROOT
