@<TRIPOS>MOLECULE
molecule
   32    32     1     0     0
SMALL
bcc


@<TRIPOS>ATOM
      1 C1           1.5080     0.0000     0.0000 c          1 DO8       0.897600
      2 O1A          2.1780     0.9550     0.6610 o          1 DO8      -0.836800
      3 O1B          2.1110    -0.8600    -0.5960 o          1 DO8      -0.836800
      4 C2           0.0000     0.0000     0.0000 c3         1 DO8       0.240600
      5 C3          -0.5070     0.0000     1.4440 c3         1 DO8      -0.112400
      6 C4          -2.0390    -0.0340     1.4350 c3         1 DO8       0.111100
      7 O4          -2.5300     0.1150     2.7690 oh         1 DO8      -0.625800
      8 C5          -2.5490     1.1210     0.5640 c3         1 DO8       0.115100
      9 O5          -2.2180     2.3660     1.1800 oh         1 DO8      -0.570800
     10 C6          -1.8880     1.0350    -0.8140 c3         1 DO8       0.132100
     11 O6          -0.4740     1.1610    -0.6780 os         1 DO8      -0.311600
     12 C7          -2.4180     2.1630    -1.7020 c3         1 DO8       0.141100
     13 O7          -3.8340     2.0350    -1.8410 oh         1 DO8      -0.635800
     14 C8          -1.7600     2.0760    -3.0810 c3         1 DO8       0.142400
     15 P1          -1.4400     3.0410    -5.3020 p5         1 DO8       1.175900
     16 O2P         -1.7490     4.3380    -6.2030 o          1 DO8      -0.922167
     17 O3P         -2.0500     1.7330    -6.0180 o          1 DO8      -0.922167
     18 O           -2.1650     3.1950    -3.8730 os         1 DO8      -0.563200
     19 O1P          0.0230     2.8820    -5.1490 o          1 DO8      -0.922167
     20 O2          -0.4750    -1.1690    -0.6700 oh         1 DO8      -0.649800
     21 H31         -0.1680     0.8980     1.9460 hc         1 DO8       0.056200
     22 H32         -0.1290    -0.8740     1.9600 hc         1 DO8       0.056200
     23 H4          -2.3770    -0.9760     1.0210 h1         1 DO8       0.031700
     24 HO4         -2.9400    -0.6880     3.0440 ho         1 DO8       0.366000
     25 H5          -3.6240     1.0400     0.4540 h1         1 DO8       0.023700
     26 HO5         -2.9830     2.7210     1.6020 ho         1 DO8       0.367000
     27 H6          -2.1210     0.0770    -1.2630 h1         1 DO8       0.074700
     28 H7          -2.1840     3.1190    -1.2500 h1         1 DO8       0.041700
     29 HO7         -4.2270     2.8920    -1.8510 ho         1 DO8       0.392000
     30 H81         -0.6830     2.0850    -2.9690 h1         1 DO8       0.065700
     31 H82         -2.0650     1.1590    -3.5700 h1         1 DO8       0.065700
     32 HO2          0.1210    -1.8830    -0.5170 ho         1 DO8       0.414000
@<TRIPOS>BOND
     1     1     2 1
     2     1     3 1
     3     1     4 1
     4     4     5 1
     5     4    11 1
     6     4    20 1
     7     5     6 1
     8     5    21 1
     9     5    22 1
    10     6     7 1
    11     6     8 1
    12     6    23 1
    13     7    24 1
    14     8     9 1
    15     8    10 1
    16     8    25 1
    17     9    26 1
    18    10    11 1
    19    10    12 1
    20    10    27 1
    21    12    13 1
    22    12    14 1
    23    12    28 1
    24    13    29 1
    25    14    18 1
    26    14    30 1
    27    14    31 1
    28    15    16 1
    29    15    17 1
    30    15    18 1
    31    15    19 1
    32    20    32 1
@<TRIPOS>SUBSTRUCTURE
     1 DO8         1 TEMP              0 ****  ****    0 ROOT
