@<TRIPOS>MOLECULE
DO8
   32    32     1     0     0
SMALL
bcc


@<TRIPOS>ATOM
      1 C1          1.5380    0.2190    1.4960 c         1 DO8      0.924600
      2 O1A         1.4430    0.8240    2.5960 o         1 DO8     -0.840800
      3 O1B         2.6070   -0.2810    1.0400 o         1 DO8     -0.840800
      4 C2          0.2450   -0.0390    0.6450 c3        1 DO8      0.213600
      5 C3         -0.9450   -0.3550    1.5500 c3        1 DO8     -0.106400
      6 C4         -2.2640   -0.3770    0.7920 c3        1 DO8      0.118100
      7 O4         -3.3540   -0.4830    1.7010 oh        1 DO8     -0.638800
      8 C5         -2.4000    0.8880   -0.0820 c3        1 DO8      0.104100
      9 O5         -2.5670    1.9930    0.7930 oh        1 DO8     -0.640800
     10 C6         -1.1710    0.9800   -0.9950 c3        1 DO8      0.099100
     11 O6          0.0180    1.0820   -0.2000 os        1 DO8     -0.418600
     12 C7         -1.2030    2.1780   -1.9670 c3        1 DO8      0.123100
     13 O7         -1.5940    3.3430   -1.2650 oh        1 DO8     -0.653800
     14 C8         -2.1240    1.8650   -3.1830 c3        1 DO8      0.193400
     15 P1         -3.0250    3.1970   -5.2820 p5        1 DO8      1.319900
     16 O2P        -3.4060    4.6500   -5.3620 o         1 DO8     -0.933500
     17 O3P        -4.1170    2.2080   -5.5860 o         1 DO8     -0.933500
     18 O          -2.8110    2.9900   -3.5570 os        1 DO8     -0.571200
     19 O1P        -1.6670    2.8290   -5.8200 o         1 DO8     -0.933500
     20 O2          0.4450   -1.1280   -0.2370 oh        1 DO8     -0.656800
     21 H31        -0.7740   -1.3400    2.0480 hc        1 DO8      0.054700
     22 H32        -0.9770    0.4440    2.3380 hc        1 DO8      0.054700
     23 H4         -2.3360   -1.2940    0.1460 h1        1 DO8      0.062700
     24 HO4        -3.4540    0.3900    2.1030 ho        1 DO8      0.406000
     25 H5         -3.3380    0.8350   -0.7010 h1        1 DO8      0.072700
     26 HO5        -1.7910    2.5620    0.6890 ho        1 DO8      0.446000
     27 H6         -1.1150    0.0350   -1.6060 h1        1 DO8      0.052700
     28 H7         -0.1500    2.3600   -2.3220 h1        1 DO8      0.046700
     29 HO7        -2.3230    3.7500   -1.7640 ho        1 DO8      0.447000
     30 H81        -2.8420    1.0510   -2.8580 h1        1 DO8      0.003700
     31 H82        -1.4900    1.4800   -4.0300 h1        1 DO8      0.003700
     32 HO2         1.3690   -1.0730   -0.5260 ho        1 DO8      0.425000
@<TRIPOS>BOND
     1    1    2 1   
     2    1    3 1   
     3    1    4 1   
     4    4    5 1   
     5    4   11 1   
     6    4   20 1   
     7    5    6 1   
     8    5   21 1   
     9    5   22 1   
    10    6    7 1   
    11    6    8 1   
    12    6   23 1   
    13    7   24 1   
    14    8    9 1   
    15    8   10 1   
    16    8   25 1   
    17    9   26 1   
    18   10   11 1   
    19   10   12 1   
    20   10   27 1   
    21   12   13 1   
    22   12   14 1   
    23   12   28 1   
    24   13   29 1   
    25   14   18 1   
    26   14   30 1   
    27   14   31 1   
    28   15   16 1   
    29   15   17 1   
    30   15   18 1   
    31   15   19 1   
    32   20   32 1   
@<TRIPOS>SUBSTRUCTURE
     1 DO8         1 TEMP              0 ****  ****    0 ROOT
