@<TRIPOS>MOLECULE
DOB
   16    16     1     0     0
SMALL
bcc


@<TRIPOS>ATOM
      1 C1'         0.0810    0.1960   -0.0480 c         1 DOB      0.919200
      2 O1'         1.3500    0.2340   -0.1150 o         1 DOB     -0.835800
      3 O2'        -0.5510    0.2550    1.0420 o         1 DOB     -0.835800
      4 C1         -0.7090    0.0760   -1.3340 ca        1 DOB     -0.241600
      5 C2         -0.0980    0.0040   -2.6030 ca        1 DOB      0.211100
      6 C3         -0.8750   -0.1070   -3.7720 ca        1 DOB     -0.291000
      7 C4         -2.2670   -0.1440   -3.6540 ca        1 DOB      0.128100
      8 C5         -2.8970   -0.0740   -2.4050 ca        1 DOB     -0.230000
      9 C6         -2.1020    0.0360   -1.2640 ca        1 DOB     -0.042000
     10 O2          1.2520    0.0340   -2.8080 oh        1 DOB     -0.553100
     11 O4         -3.0880   -0.2520   -4.7630 oh        1 DOB     -0.523100
     12 H3         -0.3830   -0.1620   -4.7500 ha        1 DOB      0.125000
     13 H5         -3.9900   -0.1050   -2.3400 ha        1 DOB      0.125000
     14 H6         -2.5670    0.0930   -0.2650 ha        1 DOB      0.155000
     15 HO2         1.7050    0.1120   -1.9390 ho        1 DOB      0.485000
     16 HO4        -2.5150   -0.2900   -5.5400 ho        1 DOB      0.402000
@<TRIPOS>BOND
     1    1    2 1   
     2    1    3 1   
     3    1    4 1   
     4    4    5 ar  
     5    4    9 ar  
     6    5    6 ar  
     7    5   10 1   
     8    6    7 ar  
     9    6   12 1   
    10    7    8 ar  
    11    7   11 1   
    12    8    9 ar  
    13    8   13 1   
    14    9   14 1   
    15   10   15 1   
    16   11   16 1   
@<TRIPOS>SUBSTRUCTURE
     1 DOB         1 TEMP              0 ****  ****    0 ROOT
