@<TRIPOS>MOLECULE
molecule
   16    16     1     0     0
SMALL
bcc


@<TRIPOS>ATOM
      1 C1'          0.0000     0.0000     0.0000 c          1 DOB       0.881200
      2 O1'          1.2140     0.0000     0.0000 o          1 DOB      -0.829300
      3 O2'         -0.6740     0.0000     1.1680 o          1 DOB      -0.829300
      4 C1          -0.7370     0.0020    -1.2740 ca         1 DOB      -0.122600
      5 C2          -0.0380     0.0070    -2.4900 ca         1 DOB       0.143100
      6 C3          -0.7420     0.0020    -3.6830 ca         1 DOB      -0.246000
      7 C4          -2.1280     0.0020    -3.6680 ca         1 DOB       0.087100
      8 C5          -2.8170     0.0030    -2.4590 ca         1 DOB      -0.200000
      9 C6          -2.1340     0.0020    -1.2760 ca         1 DOB      -0.068000
     10 O2           1.3180     0.0060    -2.5000 oh         1 DOB      -0.468100
     11 O4          -2.8170     0.0030    -4.8380 oh         1 DOB      -0.538100
     12 H3          -0.2100     0.0040    -4.6270 ha         1 DOB       0.118000
     13 H5          -3.9000     0.0030    -2.4560 ha         1 DOB       0.116000
     14 H6          -2.6770     0.0020    -0.3380 ha         1 DOB       0.161000
     15 HO2          1.6290     0.7140    -3.0400 ho         1 DOB       0.394000
     16 HO4         -2.9380    -0.8840    -5.1320 ho         1 DOB       0.401000
@<TRIPOS>BOND
     1     1     2 1
     2     1     3 1
     3     1     4 1
     4     4     5 ar
     5     4     9 ar
     6     5     6 ar
     7     5    10 1
     8     6     7 ar
     9     6    12 1
    10     7     8 ar
    11     7    11 1
    12     8     9 ar
    13     8    13 1
    14     9    14 1
    15    10    15 1
    16    11    16 1
@<TRIPOS>SUBSTRUCTURE
     1 DOB         1 TEMP              0 ****  ****    0 ROOT
