@<TRIPOS>MOLECULE
molecule
    3     2     1     0     0
SMALL
bcc


@<TRIPOS>ATOM
      1 O            0.0000     0.0000     0.0000 oh         1 DOD      -0.802000
      2 H1           0.9450     0.0000     0.0000 ho         1 DOD       0.401000
      3 H2          -0.3150     0.0000     0.8910 ho         1 DOD       0.401000
@<TRIPOS>BOND
     1     1     2 1
     2     1     3 1
@<TRIPOS>SUBSTRUCTURE
     1 DOD         1 TEMP              0 ****  ****    0 ROOT
