@<TRIPOS>MOLECULE
DOD
    3     2     1     0     0
SMALL
bcc


@<TRIPOS>ATOM
      1 O          -0.0200   -0.0020   -0.0260 oh        1 DOD     -0.785000
      2 D1          0.9410    0.0000    0.0220 ho        1 DOD      0.392000
      3 D2         -0.2910    0.0020    0.8960 ho        1 DOD      0.392000
@<TRIPOS>BOND
     1    1    2 1   
     2    1    3 1   
@<TRIPOS>SUBSTRUCTURE
     1 DOD         1 TEMP              0 ****  ****    0 ROOT
