@<TRIPOS>MOLECULE
molecule
   80    81     1     0     0
SMALL
bcc


@<TRIPOS>ATOM
      1 C1           0.0000     0.0000     0.0000 c3         1 DOE       0.189500
      2 C2           1.5500     0.0000     0.0000 c3         1 DOE       0.128800
      3 C3           2.6620     1.3230     1.7350 c3         1 DOE       0.121300
      4 C4           1.5900     2.4010     2.0140 c3         1 DOE       0.160800
      5 C5           2.3120     4.2910     0.6040 c3         1 DOE       0.187800
      6 C6           1.1020     4.9760    -0.0800 c3         1 DOE       0.175800
      7 C7           0.0840     3.0370    -1.1890 c3         1 DOE       0.121300
      8 C8          -1.0360     1.9860    -1.0390 c3         1 DOE       0.177800
      9 C10         -1.0090     0.6020    -3.5670 c          1 DOE       0.897600
     10 C12          3.6140    -1.0390     2.9300 c          1 DOE       0.897600
     11 C14          3.4360     5.5170     2.9150 c          1 DOE       0.886600
     12 C16         -1.4650     6.0730     0.3270 c          1 DOE       0.889600
     13 C17         -0.5260    -1.4320     0.2030 c3         1 DOE      -0.032100
     14 C18         -1.9210    -1.4270     0.7550 ca         1 DOE      -0.054300
     15 C19         -2.1160    -1.4270     2.1310 ca         1 DOE      -0.083000
     16 C20         -3.4130    -1.4220     2.6450 ca         1 DOE      -0.178000
     17 C21         -4.5060    -1.4150     1.7790 ca         1 DOE       0.010600
     18 C22         -4.3020    -1.4140     0.3990 ca         1 DOE      -0.178000
     19 C23         -3.0050    -1.4190    -0.1150 ca         1 DOE      -0.083000
     20 C24         -7.0150    -1.4010     1.5870 c          1 DOE       0.679100
     21 C25         -8.2220    -1.3970     2.4990 c3         1 DOE      -0.102300
     22 C26        -10.1050     0.0010     3.9200 c3         1 DOE      -0.019300
     23 C27        -10.7180     1.2970     4.4250 c3         1 DOE       0.159400
     24 N1          -0.6560     0.5730    -1.1940 n3         1 DOE      -0.753600
     25 N2           2.0890     0.0000     1.3820 n3         1 DOE      -0.703600
     26 N3           2.0340     3.8070     1.9690 n3         1 DOE      -0.682600
     27 N4          -0.1150     4.1690    -0.2640 n3         1 DOE      -0.704600
     28 N5          -5.8030    -1.4090     2.2930 ns         1 DOE      -0.456100
     29 O1          -2.2280     0.5760    -3.4870 o          1 DOE      -0.872300
     30 O2          -0.3370     0.9500    -4.6950 o          1 DOE      -0.872300
     31 O3           2.9570    -0.7700     3.9240 o          1 DOE      -0.867800
     32 O4           4.9220    -1.4040     2.9680 o          1 DOE      -0.867800
     33 O5           2.6100     6.4100     2.8000 o          1 DOE      -0.870300
     34 O6           4.7610     5.7390     3.1150 o          1 DOE      -0.870300
     35 O7          -1.2590     5.9700     1.5270 o          1 DOE      -0.863300
     36 O8          -1.9640     7.1930    -0.2570 o          1 DOE      -0.863300
     37 O9          -7.1550    -1.3830     0.3660 o          1 DOE      -0.564100
     38 O10        -11.1540     2.0910     3.3290 oh         1 DOE      -0.590800
     39 S1          -8.6850     0.3180     2.8460 ss         1 DOE      -0.215200
     40 HC1         -0.3200     0.5860     0.8530 h1         1 DOE       0.081700
     41 HC21         1.9040     0.8820    -0.5190 h1         1 DOE       0.026200
     42 HC22         1.9040    -0.8830    -0.5190 h1         1 DOE       0.026200
     43 HC31         3.2780     1.2100     2.6190 h1         1 DOE       0.028950
     44 HC32         3.2870     1.6600     0.9170 h1         1 DOE       0.028950
     45 HC41         1.1770     2.2140     2.9980 h1         1 DOE       0.053700
     46 HC42         0.7960     2.2790     1.2880 h1         1 DOE       0.053700
     47 HC51         3.1280     5.0020     0.6510 h1         1 DOE       0.015700
     48 HC52         2.6210     3.4500    -0.0040 h1         1 DOE       0.015700
     49 HC61         0.8370     5.8460     0.5080 h1         1 DOE       0.037700
     50 HC62         1.4240     5.3170    -1.0570 h1         1 DOE       0.037700
     51 HC71         0.0880     3.4090    -2.2060 h1         1 DOE       0.028950
     52 HC72         1.0380     2.5710    -0.9770 h1         1 DOE       0.028950
     53 HC81        -1.4750     2.1060    -0.0560 h1         1 DOE       0.061700
     54 HC82        -1.7990     2.2070    -1.7760 h1         1 DOE       0.061700
     55 HC91         0.2100    -0.7850    -2.5200 h1         1 DOE       0.019700
     56 HC92         0.8610     0.8600    -2.5960 h1         1 DOE       0.019700
     57 H111         2.7170    -1.9960     1.2590 h1         1 DOE       0.013700
     58 H112         3.9530    -0.7960     0.8480 h1         1 DOE       0.013700
     59 H131         4.0430     3.5290     2.4850 h1         1 DOE       0.023200
     60 H132         2.9320     3.6820     3.8550 h1         1 DOE       0.023200
     61 H151        -0.9590     5.4930    -1.6520 h1         1 DOE       0.018700
     62 H152        -2.1140     4.4230    -0.8420 h1         1 DOE       0.018700
     63 H171         0.1260    -1.9550     0.8920 hc         1 DOE       0.042200
     64 H172        -0.5230    -1.9490    -0.7490 hc         1 DOE       0.042200
     65 H19         -1.2650    -1.4330     2.8020 ha         1 DOE       0.166500
     66 H20         -3.5710    -1.4230     3.7170 ha         1 DOE       0.127000
     67 H22         -5.1510    -1.4080    -0.2740 ha         1 DOE       0.127000
     68 H23         -2.8440    -1.4190    -1.1860 ha         1 DOE       0.166500
     69 H251        -9.0460    -1.9040     2.0130 h1         1 DOE       0.061700
     70 H252        -7.9800    -1.9020     3.4260 h1         1 DOE       0.061700
     71 H261       -10.8530    -0.5510     3.3640 h1         1 DOE       0.052700
     72 H262        -9.7830    -0.5920     4.7670 h1         1 DOE       0.052700
     73 H271       -11.5640     1.0700     5.0620 h1         1 DOE       0.020700
     74 H272        -9.9780     1.8460     4.9950 h1         1 DOE       0.020700
     75 HN5         -5.8780    -1.4100     3.2910 hn         1 DOE       0.300500
     76 H10        -11.5850     2.8650     3.6530 ho         1 DOE       0.396000
     77 C9          -0.0380     0.2690    -2.4760 c3         1 DOE       0.085800
     78 C11          3.1290    -1.0260     1.5120 c3         1 DOE       0.063800
     79 C13          3.1680     4.0450     2.8620 c3         1 DOE       0.067800
     80 C15         -1.2210     5.0220    -0.7130 c3         1 DOE       0.069800
@<TRIPOS>BOND
     1     1     2 1
     2     1    13 1
     3     1    24 1
     4     1    40 1
     5     2    25 1
     6     2    41 1
     7     2    42 1
     8     3     4 1
     9     3    25 1
    10     3    43 1
    11     3    44 1
    12     4    26 1
    13     4    45 1
    14     4    46 1
    15     5     6 1
    16     5    26 1
    17     5    47 1
    18     5    48 1
    19     6    27 1
    20     6    49 1
    21     6    50 1
    22     7     8 1
    23     7    27 1
    24     7    51 1
    25     7    52 1
    26     8    24 1
    27     8    53 1
    28     8    54 1
    29    77     9 1
    30    77    24 1
    31    77    55 1
    32    77    56 1
    33     9    29 1
    34     9    30 1
    35    78    10 1
    36    78    25 1
    37    78    57 1
    38    78    58 1
    39    10    31 1
    40    10    32 1
    41    79    11 1
    42    79    26 1
    43    79    59 1
    44    79    60 1
    45    11    33 1
    46    11    34 1
    47    80    12 1
    48    80    27 1
    49    80    61 1
    50    80    62 1
    51    12    35 1
    52    12    36 1
    53    13    14 1
    54    13    63 1
    55    13    64 1
    56    14    15 ar
    57    14    19 ar
    58    15    16 ar
    59    15    65 1
    60    16    17 ar
    61    16    66 1
    62    17    18 ar
    63    17    28 1
    64    18    19 ar
    65    18    67 1
    66    19    68 1
    67    20    21 1
    68    20    28 1
    69    20    37 2
    70    21    39 1
    71    21    69 1
    72    21    70 1
    73    22    23 1
    74    22    39 1
    75    22    71 1
    76    22    72 1
    77    23    38 1
    78    23    73 1
    79    23    74 1
    80    28    75 1
    81    38    76 1
@<TRIPOS>SUBSTRUCTURE
     1 DOE         1 TEMP              0 ****  ****    0 ROOT
