@<TRIPOS>MOLECULE
DOF
   67    68     1     0     0
SMALL
bcc


@<TRIPOS>ATOM
      1 C1           0.0000     0.0000     0.0000 c3         1 DOF       0.127500
      2 C2           1.5500     0.0000     0.0000 c3         1 DOF       0.106800
      3 C3           2.6620     1.3230     1.7350 c3         1 DOF       0.096300
      4 C4           1.5900     2.4010     2.0140 c3         1 DOF       0.120800
      5 C5           2.3120     4.2910     0.6040 c3         1 DOF       0.154800
      6 C6           1.1020     4.9760    -0.0800 c3         1 DOF       0.134800
      7 C7           0.0840     3.0370    -1.1890 c3         1 DOF       0.096300
      8 C8          -1.0360     1.9860    -1.0390 c3         1 DOF       0.132800
      9 C10         -1.0090     0.6020    -3.5670 c          1 DOF       0.990600
     10 C12          3.6140    -1.0390     2.9300 c          1 DOF       0.986600
     11 C14          3.4360     5.5170     2.9150 c          1 DOF       0.976600
     12 C16         -1.4650     6.0730     0.3270 c          1 DOF       0.978600
     13 C17         -0.5260    -1.4320     0.2030 c3         1 DOF      -0.004100
     14 C18         -1.9210    -1.4270     0.7550 ca         1 DOF       0.044700
     15 C19         -2.1160    -1.4280     2.1320 ca         1 DOF      -0.114000
     16 C20         -3.4130    -1.4230     2.6450 ca         1 DOF      -0.012500
     17 C21         -4.5060    -1.4150     1.7790 ca         1 DOF      -0.516200
     18 C22         -4.3020    -1.4140     0.3990 ca         1 DOF      -0.012500
     19 C23         -3.0050    -1.4190    -0.1150 ca         1 DOF      -0.114000
     20 N1          -0.6560     0.5730    -1.1940 n3         1 DOF      -0.537600
     21 N2           2.0890     0.0000     1.3820 n3         1 DOF      -0.511600
     22 N3           2.0340     3.8070     1.9690 n3         1 DOF      -0.474600
     23 N4          -0.1150     4.1690    -0.2640 n3         1 DOF      -0.498600
     24 N5          -5.8260    -1.4100     2.3020 no         1 DOF       1.052200
     25 O1          -2.2280     0.5760    -3.4870 o          1 DOF      -0.919800
     26 O2          -0.3370     0.9500    -4.6950 o          1 DOF      -0.919800
     27 O3           2.9570    -0.7700     3.9240 o          1 DOF      -0.912800
     28 O4           4.9220    -1.4040     2.9680 o          1 DOF      -0.912800
     29 O5           2.6100     6.4100     2.8000 o          1 DOF      -0.915800
     30 O6           4.7610     5.7390     3.1150 o          1 DOF      -0.915800
     31 O7          -1.2590     5.9700     1.5270 o          1 DOF      -0.908800
     32 O8          -1.9640     7.1930    -0.2570 o          1 DOF      -0.908800
     33 O9          -6.7960    -1.4030     1.5050 o          1 DOF      -0.500000
     34 O10         -5.9880    -1.4100     3.5460 o          1 DOF      -0.500000
     35 HC1         -0.3200     0.5860     0.8530 h1         1 DOF       0.062700
     36 HC21         1.9040    -0.8830    -0.5190 h1         1 DOF       0.014700
     37 HC22         1.9040     0.8820    -0.5190 h1         1 DOF       0.014700
     38 HC31         3.2870     1.6600     0.9170 h1         1 DOF       0.016950
     39 HC32         3.2780     1.2100     2.6190 h1         1 DOF       0.016950
     40 HC41         0.7960     2.2790     1.2880 h1         1 DOF       0.028200
     41 HC42         1.1770     2.2140     2.9980 h1         1 DOF       0.028200
     42 HC51         3.1280     5.0020     0.6510 h1         1 DOF      -0.000800
     43 HC52         2.6210     3.4500    -0.0040 h1         1 DOF      -0.000800
     44 HC61         1.4240     5.3170    -1.0570 h1         1 DOF       0.021700
     45 HC62         0.8370     5.8460     0.5080 h1         1 DOF       0.021700
     46 HC71         0.0880     3.4090    -2.2060 h1         1 DOF       0.016950
     47 HC72         1.0380     2.5710    -0.9770 h1         1 DOF       0.016950
     48 HC81        -1.7990     2.2070    -1.7760 h1         1 DOF       0.037700
     49 HC82        -1.4750     2.1060    -0.0560 h1         1 DOF       0.037700
     50 HC91         0.2100    -0.7850    -2.5200 h1         1 DOF       0.006200
     51 HC92         0.8610     0.8600    -2.5960 h1         1 DOF       0.006200
     52 H111         3.9530    -0.7960     0.8480 h1         1 DOF      -0.002300
     53 H112         2.7170    -1.9960     1.2590 h1         1 DOF      -0.002300
     54 H131         4.0430     3.5290     2.4850 h1         1 DOF       0.006700
     55 H132         2.9320     3.6820     3.8550 h1         1 DOF       0.006700
     56 H151        -0.9590     5.4930    -1.6520 h1         1 DOF       0.002200
     57 H152        -2.1140     4.4230    -0.8420 h1         1 DOF       0.002200
     58 H171         0.1260    -1.9550     0.8920 hc         1 DOF       0.025700
     59 H172        -0.5230    -1.9490    -0.7490 hc         1 DOF       0.025700
     60 H19         -1.2650    -1.4340     2.8020 ha         1 DOF       0.150000
     61 H20         -3.5710    -1.4230     3.7170 ha         1 DOF       0.119000
     62 H22         -5.1510    -1.4080    -0.2740 ha         1 DOF       0.119000
     63 H23         -2.8440    -1.4190    -1.1860 ha         1 DOF       0.150000
     64 C9          -0.0380     0.2690    -2.4760 c3         1 DOF       0.045800
     65 C11          3.1290    -1.0260     1.5120 c3         1 DOF       0.040800
     66 C13          3.1680     4.0450     2.8620 c3         1 DOF       0.034800
     67 C15         -1.2210     5.0220    -0.7130 c3         1 DOF       0.037800
@<TRIPOS>BOND
     1     1     2 1   
     2     1    13 1   
     3     1    20 1   
     4     1    35 1   
     5     2    21 1   
     6     2    36 1   
     7     2    37 1   
     8     3     4 1   
     9     3    21 1   
    10     3    38 1   
    11     3    39 1   
    12     4    22 1   
    13     4    40 1   
    14     4    41 1   
    15     5     6 1   
    16     5    22 1   
    17     5    42 1   
    18     5    43 1   
    19     6    23 1   
    20     6    44 1   
    21     6    45 1   
    22     7     8 1   
    23     7    23 1   
    24     7    46 1   
    25     7    47 1   
    26     8    20 1   
    27     8    48 1   
    28     8    49 1   
    29     9    25 1   
    30     9    26 1   
    31     9    64 1   
    32    10    27 1   
    33    10    28 1   
    34    10    65 1   
    35    11    29 1   
    36    11    30 1   
    37    11    66 1   
    38    12    31 1   
    39    12    32 1   
    40    12    67 1   
    41    13    14 1   
    42    13    58 1   
    43    13    59 1   
    44    14    15 ar  
    45    14    19 ar  
    46    15    16 ar  
    47    15    60 1   
    48    16    17 ar  
    49    16    61 1   
    50    17    18 ar  
    51    17    24 1   
    52    18    19 ar  
    53    18    62 1   
    54    19    63 1   
    55    20    64 1   
    56    21    65 1   
    57    22    66 1   
    58    23    67 1   
    59    24    33 1   
    60    24    34 1   
    61    50    64 1   
    62    51    64 1   
    63    52    65 1   
    64    53    65 1   
    65    54    66 1   
    66    55    66 1   
    67    56    67 1   
    68    57    67 1   
@<TRIPOS>SUBSTRUCTURE
     1 DOF         1 TEMP              0 ****  ****    0 ROOT
