@<TRIPOS>MOLECULE
molecule
   67    68     1     0     0
SMALL
bcc


@<TRIPOS>ATOM
      1 C1           0.0000     0.0000     0.0000 c3         1 DOF       0.191500
      2 C2           1.5500     0.0000     0.0000 c3         1 DOF       0.130800
      3 C3           2.6620     1.3230     1.7350 c3         1 DOF       0.121300
      4 C4           1.5900     2.4010     2.0140 c3         1 DOF       0.161800
      5 C5           2.3120     4.2910     0.6040 c3         1 DOF       0.187800
      6 C6           1.1020     4.9760    -0.0800 c3         1 DOF       0.175800
      7 C7           0.0840     3.0370    -1.1890 c3         1 DOF       0.121300
      8 C8          -1.0360     1.9860    -1.0390 c3         1 DOF       0.176800
      9 C10         -1.0090     0.6020    -3.5670 c          1 DOF       0.897600
     10 C12          3.6140    -1.0390     2.9300 c          1 DOF       0.896600
     11 C14          3.4360     5.5170     2.9150 c          1 DOF       0.886600
     12 C16         -1.4650     6.0730     0.3270 c          1 DOF       0.889600
     13 C17         -0.5260    -1.4320     0.2030 c3         1 DOF      -0.047100
     14 C18         -1.9210    -1.4270     0.7550 ca         1 DOF       0.026700
     15 C19         -2.1160    -1.4280     2.1320 ca         1 DOF      -0.126500
     16 C20         -3.4130    -1.4230     2.6450 ca         1 DOF      -0.070500
     17 C21         -4.5060    -1.4150     1.7790 ca         1 DOF      -0.210200
     18 C22         -4.3020    -1.4140     0.3990 ca         1 DOF      -0.070500
     19 C23         -3.0050    -1.4190    -0.1150 ca         1 DOF      -0.126500
     20 N1          -0.6560     0.5730    -1.1940 n3         1 DOF      -0.759600
     21 N2           2.0890     0.0000     1.3820 n3         1 DOF      -0.705600
     22 N3           2.0340     3.8070     1.9690 n3         1 DOF      -0.681600
     23 N4          -0.1150     4.1690    -0.2640 n3         1 DOF      -0.704600
     24 N5          -5.8260    -1.4100     2.3020 no         1 DOF       0.294200
     25 O1          -2.2280     0.5760    -3.4870 o          1 DOF      -0.870800
     26 O2          -0.3370     0.9500    -4.6950 o          1 DOF      -0.870800
     27 O3           2.9570    -0.7700     3.9240 o          1 DOF      -0.865300
     28 O4           4.9220    -1.4040     2.9680 o          1 DOF      -0.865300
     29 O5           2.6100     6.4100     2.8000 o          1 DOF      -0.868800
     30 O6           4.7610     5.7390     3.1150 o          1 DOF      -0.868800
     31 O7          -1.2590     5.9700     1.5270 o          1 DOF      -0.861300
     32 O8          -1.9640     7.1930    -0.2570 o          1 DOF      -0.861300
     33 O9          -6.7960    -1.4030     1.5050 o          1 DOF      -0.261000
     34 O10         -5.9880    -1.4100     3.5460 o          1 DOF      -0.261000
     35 HC1         -0.3200     0.5860     0.8530 h1         1 DOF       0.083700
     36 HC21         1.9040    -0.8830    -0.5190 h1         1 DOF       0.028700
     37 HC22         1.9040     0.8820    -0.5190 h1         1 DOF       0.028700
     38 HC31         3.2870     1.6600     0.9170 h1         1 DOF       0.030700
     39 HC32         3.2780     1.2100     2.6190 h1         1 DOF       0.030700
     40 HC41         0.7960     2.2790     1.2880 h1         1 DOF       0.051700
     41 HC42         1.1770     2.2140     2.9980 h1         1 DOF       0.051700
     42 HC51         3.1280     5.0020     0.6510 h1         1 DOF       0.015700
     43 HC52         2.6210     3.4500    -0.0040 h1         1 DOF       0.015700
     44 HC61         1.4240     5.3170    -1.0570 h1         1 DOF       0.039200
     45 HC62         0.8370     5.8460     0.5080 h1         1 DOF       0.039200
     46 HC71         0.0880     3.4090    -2.2060 h1         1 DOF       0.030700
     47 HC72         1.0380     2.5710    -0.9770 h1         1 DOF       0.030700
     48 HC81        -1.7990     2.2070    -1.7760 h1         1 DOF       0.061700
     49 HC82        -1.4750     2.1060    -0.0560 h1         1 DOF       0.061700
     50 HC91         0.2100    -0.7850    -2.5200 h1         1 DOF       0.021200
     51 HC92         0.8610     0.8600    -2.5960 h1         1 DOF       0.021200
     52 H111         3.9530    -0.7960     0.8480 h1         1 DOF       0.013700
     53 H112         2.7170    -1.9960     1.2590 h1         1 DOF       0.013700
     54 H131         4.0430     3.5290     2.4850 h1         1 DOF       0.023700
     55 H132         2.9320     3.6820     3.8550 h1         1 DOF       0.023700
     56 H151        -0.9590     5.4930    -1.6520 h1         1 DOF       0.017700
     57 H152        -2.1140     4.4230    -0.8420 h1         1 DOF       0.017700
     58 H171         0.1260    -1.9550     0.8920 hc         1 DOF       0.051200
     59 H172        -0.5230    -1.9490    -0.7490 hc         1 DOF       0.051200
     60 H19         -1.2650    -1.4340     2.8020 ha         1 DOF       0.180000
     61 H20         -3.5710    -1.4230     3.7170 ha         1 DOF       0.147500
     62 H22         -5.1510    -1.4080    -0.2740 ha         1 DOF       0.147500
     63 H23         -2.8440    -1.4190    -1.1860 ha         1 DOF       0.180000
     64 C9          -0.0380     0.2690    -2.4760 c3         1 DOF       0.084800
     65 C11          3.1290    -1.0260     1.5120 c3         1 DOF       0.062800
     66 C13          3.1680     4.0450     2.8620 c3         1 DOF       0.067800
     67 C15         -1.2210     5.0220    -0.7130 c3         1 DOF       0.069800
@<TRIPOS>BOND
     1     1     2 1
     2     1    13 1
     3     1    20 1
     4     1    35 1
     5     2    21 1
     6     2    36 1
     7     2    37 1
     8     3     4 1
     9     3    21 1
    10     3    38 1
    11     3    39 1
    12     4    22 1
    13     4    40 1
    14     4    41 1
    15     5     6 1
    16     5    22 1
    17     5    42 1
    18     5    43 1
    19     6    23 1
    20     6    44 1
    21     6    45 1
    22     7     8 1
    23     7    23 1
    24     7    46 1
    25     7    47 1
    26     8    20 1
    27     8    48 1
    28     8    49 1
    29    64     9 1
    30    64    20 1
    31    64    50 1
    32    64    51 1
    33     9    25 1
    34     9    26 1
    35    65    10 1
    36    65    21 1
    37    65    52 1
    38    65    53 1
    39    10    27 1
    40    10    28 1
    41    66    11 1
    42    66    22 1
    43    66    54 1
    44    66    55 1
    45    11    29 1
    46    11    30 1
    47    67    12 1
    48    67    23 1
    49    67    56 1
    50    67    57 1
    51    12    31 1
    52    12    32 1
    53    13    14 1
    54    13    58 1
    55    13    59 1
    56    14    15 ar
    57    14    19 ar
    58    15    16 ar
    59    15    60 1
    60    16    17 ar
    61    16    61 1
    62    17    18 ar
    63    17    24 1
    64    18    19 ar
    65    18    62 1
    66    19    63 1
    67    24    33 1
    68    24    34 1
@<TRIPOS>SUBSTRUCTURE
     1 DOF         1 TEMP              0 ****  ****    0 ROOT
