@<TRIPOS>MOLECULE
DOG
   62    66     1     0     0
SMALL
bcc


@<TRIPOS>ATOM
      1 O23        -0.1890   -0.2050    0.1340 o         1 DOG     -0.565500
      2 C23         1.0310   -0.2040    0.2370 c         1 DOG      0.706800
      3 C22         1.9780   -0.0350    1.3640 ce        1 DOG     -0.246200
      4 O21         1.7560   -0.4050   -0.9380 os        1 DOG     -0.421900
      5 C21         3.1690   -0.3760   -0.6140 c3        1 DOG      0.133600
      6 C20         3.2400   -0.1300    0.8790 c2        1 DOG     -0.062400
      7 C17         4.4940   -0.0360    1.6550 c3        1 DOG     -0.019500
      8 C16         5.5180   -1.1140    1.2720 c3        1 DOG     -0.074400
      9 C13         5.2330    1.3250    1.5150 c3        1 DOG     -0.012000
     10 C18         4.3190    2.4570    1.1050 c3        1 DOG     -0.078100
     11 C12         5.8800    1.6160    2.8870 c3        1 DOG      0.144100
     12 O12         4.8290    1.9780    3.7760 oh        1 DOG     -0.598800
     13 C14         6.3530    1.0570    0.4630 c3        1 DOG      0.157800
     14 C15         6.7340   -0.4190    0.6750 c3        1 DOG     -0.108400
     15 O14         5.7210    1.2120   -0.8130 oh        1 DOG     -0.603800
     16 C8          7.5420    2.0360    0.5130 c3        1 DOG     -0.080700
     17 C7          8.6430    1.5900   -0.4370 c3        1 DOG     -0.077400
     18 C9          8.0860    2.2470    1.9270 c3        1 DOG     -0.039700
     19 C11         6.9450    2.7020    2.8220 c3        1 DOG     -0.112400
     20 C10         9.2790    3.2180    1.9560 c3        1 DOG     -0.033000
     21 C19         8.8440    4.6300    1.5680 c3        1 DOG     -0.091100
     22 C5         10.3760    2.7410    0.9850 c3        1 DOG     -0.054700
     23 C6          9.8210    2.5380   -0.4150 c3        1 DOG     -0.073400
     24 C4         11.0860    1.4800    1.4530 c3        1 DOG     -0.068400
     25 C3         11.6520    1.6080    2.8610 c3        1 DOG      0.142100
     26 O32        12.7360    2.5280    2.7970 oh        1 DOG     -0.598800
     27 C2         10.5700    2.0600    3.8350 c3        1 DOG     -0.111400
     28 C1          9.8980    3.3250    3.3570 c3        1 DOG     -0.071400
     29 H22         1.6370    0.1410    2.3830 ha        1 DOG      0.179000
     30 H211        3.6330    0.4540   -1.2070 h1        1 DOG      0.090200
     31 H212        3.5900   -1.3670   -0.9120 h1        1 DOG      0.090200
     32 H17         4.2120   -0.1640    2.7410 hc        1 DOG      0.079700
     33 H161        5.8110   -1.6930    2.1830 hc        1 DOG      0.049200
     34 H162        5.0830   -1.8420    0.5430 hc        1 DOG      0.049200
     35 H181        3.8350    2.2360    0.1220 hc        1 DOG      0.050033
     36 H182        4.9040    3.4020    0.9990 hc        1 DOG      0.050033
     37 H183        3.5270    2.6060    1.8790 hc        1 DOG      0.050033
     38 H12         6.3570    0.6640    3.2680 h1        1 DOG      0.031700
     39 H12O        5.2450    2.2690    4.5960 ho        1 DOG      0.402000
     40 H151        7.0310   -0.8910   -0.2930 hc        1 DOG      0.051200
     41 H152        7.6060   -0.4890    1.3730 hc        1 DOG      0.051200
     42 H14O        6.3500    0.9130   -1.4800 ho        1 DOG      0.402000
     43 HC8         7.1360    3.0230    0.1420 hc        1 DOG      0.071700
     44 HC71        8.9830    0.5560   -0.1660 hc        1 DOG      0.038200
     45 HC72        8.2430    1.5450   -1.4850 hc        1 DOG      0.038200
     46 HC9         8.4610    1.2540    2.3100 hc        1 DOG      0.048700
     47 H111        6.4950    3.6530    2.4350 hc        1 DOG      0.054700
     48 H112        7.3160    2.9010    3.8610 hc        1 DOG      0.054700
     49 H191        8.1750    5.0570    2.3530 hc        1 DOG      0.038033
     50 H192        8.2980    4.6350    0.5960 hc        1 DOG      0.038033
     51 H193        9.7380    5.2940    1.4700 hc        1 DOG      0.038033
     52 HC5        11.1560    3.5570    0.9410 hc        1 DOG      0.067700
     53 HC61        9.5090    3.5310   -0.8340 hc        1 DOG      0.045200
     54 HC62       10.6310    2.1360   -1.0790 hc        1 DOG      0.045200
     55 HC41       10.3840    0.6060    1.4440 hc        1 DOG      0.050200
     56 HC42       11.9270    1.2580    0.7450 hc        1 DOG      0.050200
     57 HC3        12.0570    0.6090    3.1940 h1        1 DOG      0.030700
     58 H32O       13.0000    2.7140    3.7060 ho        1 DOG      0.399000
     59 HC21       11.0260    2.2430    4.8440 hc        1 DOG      0.043700
     60 HC22        9.8210    1.2350    3.9500 hc        1 DOG      0.043700
     61 HC11        9.1200    3.6410    4.0970 hc        1 DOG      0.046700
     62 HC12       10.6740    4.1390    3.3230 hc        1 DOG      0.046700
@<TRIPOS>BOND
     1    1    2 2   
     2    2    3 1   
     3    2    4 1   
     4    3    6 2   
     5    3   29 1   
     6    4    5 1   
     7    5    6 1   
     8    5   30 1   
     9    5   31 1   
    10    6    7 1   
    11    7    8 1   
    12    7    9 1   
    13    7   32 1   
    14    8   14 1   
    15    8   33 1   
    16    8   34 1   
    17    9   10 1   
    18    9   11 1   
    19    9   13 1   
    20   10   35 1   
    21   10   36 1   
    22   10   37 1   
    23   11   12 1   
    24   11   19 1   
    25   11   38 1   
    26   12   39 1   
    27   13   14 1   
    28   13   15 1   
    29   13   16 1   
    30   14   40 1   
    31   14   41 1   
    32   15   42 1   
    33   16   17 1   
    34   16   18 1   
    35   16   43 1   
    36   17   23 1   
    37   17   44 1   
    38   17   45 1   
    39   18   19 1   
    40   18   20 1   
    41   18   46 1   
    42   19   47 1   
    43   19   48 1   
    44   20   21 1   
    45   20   22 1   
    46   20   28 1   
    47   21   49 1   
    48   21   50 1   
    49   21   51 1   
    50   22   23 1   
    51   22   24 1   
    52   22   52 1   
    53   23   53 1   
    54   23   54 1   
    55   24   25 1   
    56   24   55 1   
    57   24   56 1   
    58   25   26 1   
    59   25   27 1   
    60   25   57 1   
    61   26   58 1   
    62   27   28 1   
    63   27   59 1   
    64   27   60 1   
    65   28   61 1   
    66   28   62 1   
@<TRIPOS>SUBSTRUCTURE
     1 DOG         1 TEMP              0 ****  ****    0 ROOT
