@<TRIPOS>MOLECULE
DOI
   36    37     1     0     0
SMALL
bcc


@<TRIPOS>ATOM
      1 PA         -1.3220   -2.7310    1.5300 p5        1 DOI      1.324900
      2 O1A        -0.3510   -2.7210    2.6780 o         1 DOI     -0.931500
      3 O2A        -1.3470   -3.9950    0.6990 o         1 DOI     -0.931500
      4 O3A        -2.6670   -2.1130    1.8060 o         1 DOI     -0.931500
      5 O5'        -0.5970   -1.6550    0.3880 os        1 DOI     -0.577200
      6 P6          1.0540    3.9840  -10.5290 p4        1 DOI      1.583300
      7 O16         2.0120    3.1100  -11.2420 o         1 DOI     -0.849500
      8 O26         1.6090    5.0700   -9.6900 o         1 DOI     -0.849500
      9 O36        -0.2910    4.1890  -11.1140 o         1 DOI     -0.898300
     10 C5'        -1.4330   -1.0500   -0.5170 c3        1 DOI      0.216400
     11 C4'        -1.4010   -1.7590   -1.8890 c3        1 DOI      0.063100
     12 O4'        -1.5930   -0.8010   -2.9500 os        1 DOI     -0.445600
     13 C1'        -0.9550   -1.3150   -4.1450 c3        1 DOI      0.262800
     14 N9         -0.5400   -0.2340   -5.0010 na        1 DOI     -0.237900
     15 C4         -0.6330   -0.2010   -6.4070 cc        1 DOI     -0.035600
     16 N3         -1.1250   -1.1400   -7.2760 nd        1 DOI     -0.559300
     17 C2         -1.0230   -0.7190   -8.5700 cd        1 DOI      0.640200
     18 N1         -0.5390    0.4070   -9.1040 nc        1 DOI     -0.776100
     19 C6         -0.0220    1.3930   -8.2450 c         1 DOI      0.648000
     20 O6          0.4480    2.4670   -8.7150 o         1 DOI     -0.723100
     21 C5         -0.0700    1.0810   -6.8140 cc        1 DOI      0.125800
     22 N7          0.3350    1.7910   -5.6790 nd        1 DOI     -0.632000
     23 C8          0.0490    1.0000   -4.6310 cd        1 DOI      0.364400
     24 C2'         0.1760   -2.2680   -3.6720 c3        1 DOI     -0.125400
     25 C3'        -0.0740   -2.4870   -2.1750 c3        1 DOI      0.149100
     26 O3'        -0.1620   -3.8660   -1.9010 oh        1 DOI     -0.685800
     27 H5'1       -1.0980    0.0170   -0.6750 h1        1 DOI      0.009700
     28 H5'2       -2.4950   -1.0510   -0.1390 h1        1 DOI      0.009700
     29 H4'        -2.2470   -2.4980   -1.9520 h1        1 DOI      0.045700
     30 H1'        -1.7380   -1.9060   -4.7070 h2        1 DOI      0.060700
     31 H2         -1.4150   -1.4530   -9.3050 h5        1 DOI     -0.017200
     32 H8          0.2060    1.2360   -3.5750 h5        1 DOI      0.047100
     33 H2'1        0.1120   -3.2310   -4.2310 hc        1 DOI      0.046700
     34 H2'2        1.1870   -1.8290   -3.8400 hc        1 DOI      0.046700
     35 H3'         0.7490   -2.0350   -1.5550 h1        1 DOI      0.057700
     36 HO3'       -0.5080   -3.9420   -0.9700 ho        1 DOI      0.504000
@<TRIPOS>BOND
     1    1    2 1   
     2    1    3 1   
     3    1    4 1   
     4    1    5 1   
     5    5   10 1   
     6    6    7 1   
     7    6    8 1   
     8    6    9 2   
     9   10   11 1   
    10   10   27 1   
    11   10   28 1   
    12   11   12 1   
    13   11   25 1   
    14   11   29 1   
    15   12   13 1   
    16   13   14 1   
    17   13   24 1   
    18   13   30 1   
    19   14   15 1   
    20   14   23 2   
    21   15   16 2   
    22   15   21 1   
    23   16   17 1   
    24   17   18 2   
    25   17   31 1   
    26   18   19 1   
    27   19   20 2   
    28   19   21 1   
    29   21   22 2   
    30   22   23 1   
    31   23   32 1   
    32   24   25 1   
    33   24   33 1   
    34   24   34 1   
    35   25   26 1   
    36   25   35 1   
    37   26   36 1   
@<TRIPOS>SUBSTRUCTURE
     1 DOI         1 TEMP              0 ****  ****    0 ROOT
