@<TRIPOS>MOLECULE
molecule
   36    38     1     0     0
SMALL
bcc


@<TRIPOS>ATOM
      1 PA           0.0000     0.0000     0.0000 p5         1 DOI       1.286900
      2 O1A          1.5220     0.0000     0.0000 o          1 DOI      -0.933833
      3 O2A         -0.5820     0.0000     1.4030 o          1 DOI      -0.933833
      4 O3A         -0.5540     1.1110    -0.8730 o          1 DOI      -0.933833
      5 O5'         -0.4420    -1.4170    -0.6840 os         1 DOI      -0.582200
      6 P6           0.9090     3.5400    -8.8790 p5         1 DOI       1.240900
      7 O16          2.3470     3.0800    -9.1240 o          1 DOI      -0.912500
      8 O26          0.8310     5.0340    -8.5770 o          1 DOI      -0.912500
      9 O36         -0.0590     3.1010    -9.9770 o          1 DOI      -0.912500
     10 C5'         -1.8290    -1.8040    -0.8050 c3         1 DOI       0.216400
     11 C4'         -2.1130    -2.3000    -2.2060 c3         1 DOI       0.136100
     12 O4'         -1.9540    -1.2140    -3.1440 os         1 DOI      -0.381600
     13 C1'         -1.2460    -1.6620    -4.2740 c3         1 DOI       0.286800
     14 N9          -0.4130    -0.5540    -4.7310 na         1 DOI      -0.282000
     15 C4          -0.1220    -0.2930    -6.0470 ca         1 DOI       0.397800
     16 N3          -0.1370    -1.1620    -7.0730 nb         1 DOI      -0.841000
     17 C2           0.1850    -0.5470    -8.2120 ca         1 DOI       0.657900
     18 N1           0.4910     0.7380    -8.4220 nb         1 DOI      -0.802000
     19 C6           0.4890     1.5870    -7.3700 ca         1 DOI       0.868600
     20 O6           0.4160     2.8060    -7.5220 os         1 DOI      -0.442700
     21 C5           0.1810     1.0570    -6.1060 ca         1 DOI      -0.230200
     22 N7           0.1030     1.6340    -4.8460 nc         1 DOI      -0.537100
     23 C8          -0.2500     0.6410    -4.0690 cd         1 DOI       0.415700
     24 C2'         -0.4040    -2.8530    -3.8250 c3         1 DOI      -0.128400
     25 C3'         -1.2460    -3.4540    -2.7050 c3         1 DOI       0.105100
     26 O3'         -2.0380    -4.5450    -3.1620 oh         1 DOI      -0.630800
     27 H5'1        -2.4600    -0.9490    -0.5930 h1         1 DOI       0.011200
     28 H5'2        -2.0440    -2.5930    -0.0950 h1         1 DOI       0.011200
     29 H4'         -3.1470    -2.6230    -2.2450 h1         1 DOI       0.005700
     30 H1'         -1.9370    -1.9640    -5.0520 h2         1 DOI       0.042700
     31 H2           0.2030    -1.1780    -9.0920 h5         1 DOI      -0.014900
     32 H8          -0.3990     0.7500    -3.0010 h5         1 DOI       0.157800
     33 H2'1         0.5560    -2.5220    -3.4470 hc         1 DOI       0.071200
     34 H2'2        -0.2820    -3.5620    -4.6350 hc         1 DOI       0.071200
     35 H3'         -0.5940    -3.7850    -1.9050 h1         1 DOI       0.058700
     36 HO3'        -1.6930    -5.3510    -2.8170 ho         1 DOI       0.371000
@<TRIPOS>BOND
     1     1     2 1
     2     1     3 1
     3     1     4 1
     4     1     5 1
     5     5    10 1
     6     6     7 1
     7     6     8 1
     8     6     9 1
     9     6    20 1
    10    10    11 1
    11    10    27 1
    12    10    28 1
    13    11    12 1
    14    11    25 1
    15    11    29 1
    16    12    13 1
    17    13    14 1
    18    13    24 1
    19    13    30 1
    20    14    15 1
    21    14    23 1
    22    15    16 ar
    23    15    21 ar
    24    16    17 ar
    25    17    18 ar
    26    17    31 1
    27    18    19 ar
    28    19    20 1
    29    19    21 ar
    30    21    22 1
    31    22    23 2
    32    23    32 1
    33    24    25 1
    34    24    33 1
    35    24    34 1
    36    25    26 1
    37    25    35 1
    38    26    36 1
@<TRIPOS>SUBSTRUCTURE
     1 DOI         1 TEMP              0 ****  ****    0 ROOT
