@<TRIPOS>MOLECULE
molecule
   57    59     1     0     0
SMALL
bcc


@<TRIPOS>ATOM
      1 FBC          0.0000     0.0000     0.0000 f          1 DOJ      -0.223300
      2 CBB          1.3990     0.0000     0.0000 c3         1 DOJ       0.675200
      3 FBD          1.8660     0.0000     1.3180 f          1 DOJ      -0.223300
      4 FBE          1.8650    -1.1430    -0.6600 f          1 DOJ      -0.223300
      5 CAZ          1.9020     1.2300    -0.7110 ca         1 DOJ      -0.162300
      6 CBA          3.2610     1.4440    -0.8420 ca         1 DOJ      -0.081000
      7 CAY          1.0030     2.1400    -1.2360 ca         1 DOJ      -0.107000
      8 CAX          1.4610     3.2690    -1.8900 ca         1 DOJ      -0.116000
      9 CAW          2.8180     3.4920    -2.0200 ca         1 DOJ      -0.143000
     10 CAV          3.7230     2.5780    -1.4980 ca         1 DOJ       0.075600
     11 NAU          5.0980     2.7980    -1.6310 ns         1 DOJ      -0.494100
     12 CAS          5.9370     1.7520    -1.7730 c          1 DOJ       0.783100
     13 OAT          5.4930     0.6260    -1.8810 o          1 DOJ      -0.643100
     14 NAR          7.2700     1.9570    -1.7940 ns         1 DOJ      -0.588900
     15 CAQ          8.1820     0.8210    -1.9480 c3         1 DOJ       0.133700
     16 CAE          9.5440     1.1730    -1.3430 c3         1 DOJ       0.137100
     17 CAF         10.5100     0.0060    -1.5600 c3         1 DOJ       0.143800
     18 OAD          9.3950     1.4150     0.0580 os         1 DOJ      -0.400600
     19 CAB         10.3340     2.3540     0.5880 c3         1 DOJ       0.346900
     20 OAC         11.6540     1.8160     0.4870 oh         1 DOJ      -0.636800
     21 CAA         10.0060     2.6290     2.0560 c3         1 DOJ      -0.122100
     22 CAP          8.3580     0.5030    -3.4350 c3         1 DOJ      -0.094400
     23 CAO          9.3590    -0.6450    -3.5920 c3         1 DOJ       0.154800
     24 NAG         10.6470    -0.2570    -2.9990 n3         1 DOJ      -0.731600
     25 CAH         11.6710    -1.2790    -3.2520 c3         1 DOJ       0.212100
     26 CAI         11.9580    -1.3460    -4.7300 ca         1 DOJ      -0.082300
     27 CAJ         12.9450    -0.5500    -5.2800 ca         1 DOJ      -0.117000
     28 CAK         13.2080    -0.6120    -6.6360 ca         1 DOJ      -0.129500
     29 CAL         12.4830    -1.4710    -7.4410 ca         1 DOJ      -0.127000
     30 CAM         11.4960    -2.2660    -6.8920 ca         1 DOJ      -0.129500
     31 CAN         11.2370    -2.2080    -5.5350 ca         1 DOJ      -0.117000
     32 HBA1         3.9650     0.7290    -0.4330 ha         1 DOJ       0.179000
     33 HAY1        -0.0620     1.9680    -1.1360 ha         1 DOJ       0.149000
     34 HAX1         0.7540     3.9810    -2.2990 ha         1 DOJ       0.139000
     35 HAW1         3.1750     4.3770    -2.5320 ha         1 DOJ       0.133000
     36 HAU1         5.4580     3.7320    -1.6310 hn         1 DOJ       0.319500
     37 HAR1         7.6340     2.8880    -1.7400 hn         1 DOJ       0.307500
     38 HAQ1         7.7770    -0.0460    -1.4400 h1         1 DOJ       0.094700
     39 HAE1         9.9350     2.0590    -1.8290 h1         1 DOJ       0.050700
     40 HAF1        10.1220    -0.8780    -1.0680 h1         1 DOJ       0.057200
     41 HAF2        11.4780     0.2600    -1.1470 h1         1 DOJ       0.057200
     42 HAB1        10.2770     3.2780     0.0250 h2         1 DOJ       0.017700
     43 HAC1        12.2680     2.4160     0.8760 ho         1 DOJ       0.417000
     44 HAA3        10.0980     1.7120     2.6250 hc         1 DOJ       0.053033
     45 HAA1         8.9930     3.0030     2.1370 hc         1 DOJ       0.053033
     46 HAA2        10.6950     3.3670     2.4490 hc         1 DOJ       0.053033
     47 HAP2         8.7330     1.3800    -3.9490 hc         1 DOJ       0.062200
     48 HAP1         7.4040     0.2100    -3.8560 hc         1 DOJ       0.062200
     49 HAO1         9.4980    -0.8600    -4.6450 h1         1 DOJ       0.045700
     50 HAO2         8.9800    -1.5240    -3.0850 h1         1 DOJ       0.045700
     51 HAH1        12.5780    -1.0210    -2.7190 h1         1 DOJ       0.042700
     52 HAH2        11.3120    -2.2420    -2.9100 h1         1 DOJ       0.042700
     53 HAJ1        13.5130     0.1220    -4.6480 ha         1 DOJ       0.131500
     54 HAK1        13.9820     0.0120    -7.0670 ha         1 DOJ       0.129000
     55 HAL1        12.6870    -1.5180    -8.5040 ha         1 DOJ       0.128000
     56 HAM1        10.9290    -2.9400    -7.5230 ha         1 DOJ       0.129000
     57 HAN1        10.4630    -2.8320    -5.1050 ha         1 DOJ       0.131500
@<TRIPOS>BOND
     1    30    31 ar
     2    30    29 ar
     3    31    26 ar
     4    29    28 ar
     5    26    25 1
     6    26    27 ar
     7    25    24 1
     8    28    27 ar
     9    24    17 1
    10    24    23 1
    11    17    16 1
    12    19    20 1
    13    19    18 1
    14    19    21 1
    15    23    22 1
    16    16    18 1
    17    16    15 1
    18    22    15 1
    19    15    14 1
    20    14    12 1
    21    12    13 2
    22    12    11 1
    23    11    10 1
    24    10     6 ar
    25    10     9 ar
    26     6     5 ar
    27     9     8 ar
    28     5     2 1
    29     5     7 ar
    30     8     7 ar
    31     4     2 1
    32     1     2 1
    33     2     3 1
    34     6    32 1
    35     7    33 1
    36     8    34 1
    37     9    35 1
    38    11    36 1
    39    14    37 1
    40    15    38 1
    41    16    39 1
    42    17    40 1
    43    17    41 1
    44    19    42 1
    45    20    43 1
    46    21    44 1
    47    21    45 1
    48    21    46 1
    49    22    47 1
    50    22    48 1
    51    23    49 1
    52    23    50 1
    53    25    51 1
    54    25    52 1
    55    27    53 1
    56    28    54 1
    57    29    55 1
    58    30    56 1
    59    31    57 1
@<TRIPOS>SUBSTRUCTURE
     1 DOJ         1 TEMP              0 ****  ****    0 ROOT
