@<TRIPOS>MOLECULE
molecule
   51    54     1     0     0
SMALL
bcc


@<TRIPOS>ATOM
      1 C11          0.0000     0.0000     0.0000 ca         1 DOK       0.046100
      2 C15         -2.2730    -0.2220    -0.7280 ca         1 DOK      -0.126000
      3 C16         -2.7150     0.1620     0.5260 ca         1 DOK      -0.126000
      4 C17         -1.8030     0.4550     1.5220 ca         1 DOK      -0.114000
      5 C18          4.5290    -2.3640     4.8280 c3         1 DOK      -0.094400
      6 C19          4.4520    -1.5190     7.1830 ca         1 DOK      -0.113000
      7 C20          2.7750    -3.0700     6.4670 ca         1 DOK      -0.113000
      8 C21          5.9710    -2.8630     4.9450 c3         1 DOK      -0.057700
      9 C22          3.8770    -1.4740     8.4380 ca         1 DOK      -0.119500
     10 C23          2.2050    -3.0360     7.7250 ca         1 DOK      -0.119500
     11 C24          5.9850    -4.2120     5.6660 c3         1 DOK      -0.091600
     12 C25          6.5690    -3.0260     3.5460 c3         1 DOK      -0.091600
     13 C26          2.7530    -2.2340     8.7110 ca         1 DOK       0.029400
     14 C1           2.2690    -1.4100     3.3760 c3         1 DOK       0.107000
     15 C2           1.9270    -1.4300     1.8820 c3         1 DOK      -0.111900
     16 C3           1.7460     0.0000     1.3840 c3         1 DOK       0.339600
     17 C4           3.0210     0.8100     1.5860 c3         1 DOK      -0.111900
     18 C5           3.3710     0.8470     3.0780 c3         1 DOK       0.107000
     19 N6           3.4280    -0.5310     3.5830 n          1 DOK      -0.490800
     20 C7           4.5240    -0.9830     4.2250 c          1 DOK       0.673100
     21 O8           5.5060    -0.2760     4.3170 o          1 DOK      -0.610100
     22 C9           3.9020    -2.3160     6.1970 ca         1 DOK      -0.078300
     23 O10          1.3660     0.0000     0.0000 os         1 DOK      -0.314900
     24 C12         -0.4450     0.3810     1.2640 ca         1 DOK       0.046100
     25 O13          0.6430     0.6220     2.0550 os         1 DOK      -0.314900
     26 C14         -0.9180    -0.3040    -0.9920 ca         1 DOK      -0.114000
     27 Cl           2.0290    -2.1790    10.2880 cl         1 DOK      -0.108400
     28 H1          -2.9900    -0.4520    -1.5060 ha         1 DOK       0.139000
     29 H2          -3.7770     0.2240     0.7290 ha         1 DOK       0.139000
     30 H3          -2.1520     0.7560     2.5030 ha         1 DOK       0.143500
     31 H4           3.9640    -3.0360     4.1940 hc         1 DOK       0.066700
     32 H5           5.3320    -0.9240     6.9700 ha         1 DOK       0.144000
     33 H6           2.3460    -3.6980     5.6950 ha         1 DOK       0.144000
     34 H7           6.5570    -2.1470     5.5080 hc         1 DOK       0.075700
     35 H8           4.3080    -0.8480     9.2100 ha         1 DOK       0.145500
     36 H9           1.3230    -3.6290     7.9370 ha         1 DOK       0.145500
     37 H10          6.9650    -4.6640     5.5680 hc         1 DOK       0.037867
     38 H11          5.7600    -4.0630     6.7150 hc         1 DOK       0.037867
     39 H12          5.2410    -4.8650     5.2260 hc         1 DOK       0.037867
     40 H13          6.7570    -2.0480     3.1180 hc         1 DOK       0.037867
     41 H14          7.5000    -3.5750     3.6130 hc         1 DOK       0.037867
     42 H15          5.8730    -3.5680     2.9170 hc         1 DOK       0.037867
     43 H16          1.4220    -1.0310     3.9360 h1         1 DOK       0.067700
     44 H17          2.5110    -2.4130     3.7060 h1         1 DOK       0.067700
     45 H18          2.7340    -1.9030     1.3350 hc         1 DOK       0.071950
     46 H19          1.0080    -1.9840     1.7310 hc         1 DOK       0.071950
     47 H20          3.8330     0.3460     1.0380 hc         1 DOK       0.071950
     48 H21          2.8670     1.8200     1.2270 hc         1 DOK       0.071950
     49 H22          2.6090     1.3990     3.6150 h1         1 DOK       0.067700
     50 H23          4.3350     1.3230     3.2120 h1         1 DOK       0.067700
     51 H24         -0.5750    -0.6050    -1.9740 ha         1 DOK       0.143500
@<TRIPOS>BOND
     1     4     3 ar
     2     4    24 ar
     3     3     2 ar
     4    12     8 1
     5    25    24 1
     6    25    16 1
     7    24     1 ar
     8    18    19 1
     9    18    17 1
    10     2    26 ar
    11     5     8 1
    12     5    20 1
    13     5    22 1
    14    19    20 1
    15    19    14 1
    16    17    16 1
    17    11     8 1
    18     7    22 ar
    19     7    10 ar
    20    16    23 1
    21    16    15 1
    22    20    21 2
    23    14    15 1
    24     1    26 ar
    25     1    23 1
    26    22     6 ar
    27    10    13 ar
    28     6     9 ar
    29    13     9 ar
    30    13    27 1
    31     2    28 1
    32     3    29 1
    33     4    30 1
    34     5    31 1
    35     6    32 1
    36     7    33 1
    37     8    34 1
    38     9    35 1
    39    10    36 1
    40    11    37 1
    41    11    38 1
    42    11    39 1
    43    12    40 1
    44    12    41 1
    45    12    42 1
    46    14    43 1
    47    14    44 1
    48    15    45 1
    49    15    46 1
    50    17    47 1
    51    17    48 1
    52    18    49 1
    53    18    50 1
    54    26    51 1
@<TRIPOS>SUBSTRUCTURE
     1 DOK         1 TEMP              0 ****  ****    0 ROOT
