@<TRIPOS>MOLECULE
DOK
   51    54     1     0     0
SMALL
bcc


@<TRIPOS>ATOM
      1 C11          0.0000     0.0000     0.0000 ca         1 DOK       0.050600
      2 C15         -2.2730    -0.2220    -0.7280 ca         1 DOK      -0.100000
      3 C16         -2.7150     0.1620     0.5260 ca         1 DOK      -0.100000
      4 C17         -1.8030     0.4550     1.5220 ca         1 DOK      -0.087000
      5 C18          4.5290    -2.3640     4.8280 c3         1 DOK      -0.069400
      6 C19          4.4520    -1.5190     7.1830 ca         1 DOK      -0.088500
      7 C20          2.7750    -3.0700     6.4670 ca         1 DOK      -0.088500
      8 C21          5.9710    -2.8630     4.9450 c3         1 DOK      -0.038700
      9 C22          3.8770    -1.4740     8.4380 ca         1 DOK      -0.095500
     10 C23          2.2050    -3.0360     7.7250 ca         1 DOK      -0.095500
     11 C24          5.9850    -4.2120     5.6660 c3         1 DOK      -0.004100
     12 C25          6.5690    -3.0260     3.5460 c3         1 DOK      -0.004100
     13 C26          2.7530    -2.2340     8.7110 ca         1 DOK      -0.034600
     14 C1           2.2690    -1.4100     3.3760 c3         1 DOK       0.048000
     15 C2           1.9270    -1.4300     1.8820 c3         1 DOK      -0.069400
     16 C3           1.7460     0.0000     1.3840 c3         1 DOK       0.359600
     17 C4           3.0210     0.8100     1.5860 c3         1 DOK      -0.069400
     18 C5           3.3710     0.8470     3.0780 c3         1 DOK       0.048000
     19 N6           3.4280    -0.5310     3.5830 n          1 DOK      -0.154800
     20 C7           4.5240    -0.9830     4.2250 c          1 DOK       0.600100
     21 O8           5.5060    -0.2760     4.3170 o          1 DOK      -0.647100
     22 C9           3.9020    -2.3160     6.1970 ca         1 DOK      -0.086300
     23 O10          1.3660     0.0000     0.0000 os         1 DOK      -0.296900
     24 C12         -0.4450     0.3810     1.2640 ca         1 DOK       0.050600
     25 O13          0.6430     0.6220     2.0550 os         1 DOK      -0.296900
     26 C14         -0.9180    -0.3040    -0.9920 ca         1 DOK      -0.087000
     27 Cl           2.0290    -2.1790    10.2880 cl         1 DOK      -0.026400
     28 H1          -2.9900    -0.4520    -1.5060 ha         1 DOK       0.108000
     29 H2          -3.7770     0.2240     0.7290 ha         1 DOK       0.108000
     30 H3          -2.1520     0.7560     2.5030 ha         1 DOK       0.112500
     31 H4           3.9640    -3.0360     4.1940 hc         1 DOK       0.047700
     32 H5           5.3320    -0.9240     6.9700 ha         1 DOK       0.118500
     33 H6           2.3460    -3.6980     5.6950 ha         1 DOK       0.118500
     34 H7           6.5570    -2.1470     5.5080 hc         1 DOK       0.053700
     35 H8           4.3080    -0.8480     9.2100 ha         1 DOK       0.116000
     36 H9           1.3230    -3.6290     7.9370 ha         1 DOK       0.116000
     37 H10          6.9650    -4.6640     5.5680 hc         1 DOK       0.006867
     38 H11          5.7600    -4.0630     6.7150 hc         1 DOK       0.006867
     39 H12          5.2410    -4.8650     5.2260 hc         1 DOK       0.006867
     40 H13          6.7570    -2.0480     3.1180 hc         1 DOK       0.006867
     41 H14          7.5000    -3.5750     3.6130 hc         1 DOK       0.006867
     42 H15          5.8730    -3.5680     2.9170 hc         1 DOK       0.006867
     43 H16          1.4220    -1.0310     3.9360 h1         1 DOK       0.040950
     44 H17          2.5110    -2.4130     3.7060 h1         1 DOK       0.040950
     45 H18          2.7340    -1.9030     1.3350 hc         1 DOK       0.041200
     46 H19          1.0080    -1.9840     1.7310 hc         1 DOK       0.041200
     47 H20          3.8330     0.3460     1.0380 hc         1 DOK       0.041200
     48 H21          2.8670     1.8200     1.2270 hc         1 DOK       0.041200
     49 H22          2.6090     1.3990     3.6150 h1         1 DOK       0.040950
     50 H23          4.3350     1.3230     3.2120 h1         1 DOK       0.040950
     51 H24         -0.5750    -0.6050    -1.9740 ha         1 DOK       0.112500
@<TRIPOS>BOND
     1     1    23 1   
     2     1    24 ar  
     3     1    26 ar  
     4     2     3 ar  
     5     2    26 ar  
     6     2    28 1   
     7     3     4 ar  
     8     3    29 1   
     9     4    24 ar  
    10     4    30 1   
    11     5     8 1   
    12     5    20 1   
    13     5    22 1   
    14     5    31 1   
    15     6     9 ar  
    16     6    22 ar  
    17     6    32 1   
    18     7    10 ar  
    19     7    22 ar  
    20     7    33 1   
    21     8    11 1   
    22     8    12 1   
    23     8    34 1   
    24     9    13 ar  
    25     9    35 1   
    26    10    13 ar  
    27    10    36 1   
    28    11    37 1   
    29    11    38 1   
    30    11    39 1   
    31    12    40 1   
    32    12    41 1   
    33    12    42 1   
    34    13    27 1   
    35    14    15 1   
    36    14    19 1   
    37    14    43 1   
    38    14    44 1   
    39    15    16 1   
    40    15    45 1   
    41    15    46 1   
    42    16    17 1   
    43    16    23 1   
    44    16    25 1   
    45    17    18 1   
    46    17    47 1   
    47    17    48 1   
    48    18    19 1   
    49    18    49 1   
    50    18    50 1   
    51    19    20 1   
    52    20    21 2   
    53    24    25 1   
    54    26    51 1   
@<TRIPOS>SUBSTRUCTURE
     1 DOK         1 TEMP              0 ****  ****    0 ROOT
