@<TRIPOS>MOLECULE
molecule
   55    60     1     0     0
SMALL
bcc


@<TRIPOS>ATOM
      1 F30          0.0000     0.0000     0.0000 f          1 DOO      -0.140900
      2 C6           1.3510     0.0000     0.0000 ca         1 DOO       0.154900
      3 C1           2.0410     0.0000     1.2030 ca         1 DOO      -0.235000
      4 C5           2.0380    -0.0050    -1.1970 ca         1 DOO      -0.168000
      5 C4           3.4340    -0.0060    -1.1980 cp         1 DOO       0.014000
      6 C7           4.4480    -0.0110    -2.2630 cp         1 DOO      -0.341600
      7 C13          4.4030    -0.0170    -3.6630 ca         1 DOO       0.721200
      8 N22          3.1920    -0.0200    -4.3310 nh         1 DOO      -0.695300
      9 C26          3.0120     1.2300    -5.1140 c3         1 DOO       0.157800
     10 C25          1.9460     0.8760    -6.1700 c3         1 DOO      -0.083700
     11 C27          2.3760     1.4600    -7.5340 c3         1 DOO      -0.081400
     12 C28          2.1240     0.2830    -8.5100 c3         1 DOO       0.141800
     13 N29          2.5240    -0.9070    -7.7190 n7         1 DOO      -0.792200
     14 C24          2.0470    -0.6600    -6.3410 c3         1 DOO       0.146500
     15 C23          3.1480    -1.0980    -5.3510 c3         1 DOO       0.154800
     16 N12          5.5490    -0.0200    -4.3370 nb         1 DOO      -0.806000
     17 C11          6.7120    -0.0170    -3.7010 ca         1 DOO       0.942300
     18 N10          6.7980    -0.0120    -2.3820 nb         1 DOO      -0.850000
     19 C8           5.6990    -0.0080    -1.6270 ca         1 DOO       0.578800
     20 N9           5.4950    -0.0020    -0.2700 na         1 DOO      -0.276000
     21 C3           4.1360    -0.0010     0.0140 ca         1 DOO      -0.095200
     22 C2           3.4270    -0.0010     1.2170 ca         1 DOO       0.220600
     23 N31          4.1140     0.0000     2.4350 nu         1 DOO      -0.831600
     24 C32          3.3700     0.0020     3.6960 c3         1 DOO       0.228100
     25 O14          7.8540    -0.0210    -4.4290 os         1 DOO      -0.319400
     26 C15          9.0340    -0.1300    -3.7630 ca         1 DOO      -0.142500
     27 C20          9.4520    -1.3520    -3.2470 ca         1 DOO       0.467200
     28 N19         10.6070    -1.4170    -2.6050 nb         1 DOO      -0.728500
     29 C18         11.3570    -0.3450    -2.4540 ca         1 DOO       0.685300
     30 C21         12.6670    -0.4650    -1.7170 c3         1 DOO      -0.123400
     31 N17         10.9970     0.8310    -2.9280 nb         1 DOO      -0.728500
     32 C16          9.8580     0.9760    -3.5860 ca         1 DOO       0.467200
     33 H1           1.4940     0.0010     2.1380 ha         1 DOO       0.152000
     34 H2           1.4960    -0.0720    -2.1330 ha         1 DOO       0.164000
     35 H3           3.9420     1.5090    -5.5960 h1         1 DOO       0.060700
     36 H4           2.6570     2.0280    -4.4730 h1         1 DOO       0.060700
     37 H5           0.9520     1.1940    -5.8790 hc         1 DOO       0.068700
     38 H6           1.7600     2.3110    -7.7960 hc         1 DOO       0.056200
     39 H7           3.4260     1.7260    -7.5200 hc         1 DOO       0.056200
     40 H8           1.0760     0.2280    -8.7770 h1         1 DOO       0.041700
     41 H9           2.7460     0.3800    -9.3920 h1         1 DOO       0.041700
     42 H10          2.0730    -1.7200    -8.0880 hn         1 DOO       0.347800
     43 H12          1.1030    -1.1530    -6.1420 h1         1 DOO       0.047700
     44 H13          4.1020    -1.1730    -5.8590 h1         1 DOO       0.071200
     45 H14          2.8850    -2.0410    -4.8890 h1         1 DOO       0.071200
     46 H15          6.2230     0.0020     0.4180 hn         1 DOO       0.304700
     47 H16          5.1150    -0.0150     2.4450 hn         1 DOO       0.433800
     48 H17          4.0660     0.0000     4.5260 h1         1 DOO       0.037700
     49 H18          2.7440    -0.8800     3.7470 h1         1 DOO       0.037700
     50 H19          2.7490     0.8890     3.7480 h1         1 DOO       0.037700
     51 H20          8.8400    -2.2380    -3.3680 h4         1 DOO       0.041100
     52 H21         12.6280     0.1270    -0.8110 hc         1 DOO       0.061367
     53 H22         12.8440    -1.5030    -1.4620 hc         1 DOO       0.061367
     54 H23         13.4710    -0.1070    -2.3480 hc         1 DOO       0.061367
     55 H24          9.5680     1.9460    -3.9730 h4         1 DOO       0.041100
@<TRIPOS>BOND
     1    24    23 1
     2     1     2 1
     3     3     2 ar
     4     3    22 ar
     5    23    22 1
     6     2     4 ar
     7    22    21 ar
     8     4     5 ar
     9    21     5 ar
    10    21    20 1
    11     5     6 1
    12    20    19 1
    13     6    19 ar
    14     6     7 ar
    15    19    18 ar
    16    15     8 1
    17    15    14 1
    18     7     8 1
    19     7    16 ar
    20     8     9 1
    21    18    17 ar
    22     9    10 1
    23    16    17 ar
    24    17    25 1
    25    14    10 1
    26    14    13 1
    27    10    11 1
    28    25    26 1
    29    13    12 1
    30    27    26 ar
    31    27    28 ar
    32    26    32 ar
    33    11    12 1
    34    28    29 ar
    35    32    31 ar
    36    29    31 ar
    37    29    30 1
    38     3    33 1
    39     4    34 1
    40     9    35 1
    41     9    36 1
    42    10    37 1
    43    11    38 1
    44    11    39 1
    45    12    40 1
    46    12    41 1
    47    13    42 1
    48    14    43 1
    49    15    44 1
    50    15    45 1
    51    20    46 1
    52    23    47 1
    53    24    48 1
    54    24    49 1
    55    24    50 1
    56    27    51 1
    57    30    52 1
    58    30    53 1
    59    30    54 1
    60    32    55 1
@<TRIPOS>SUBSTRUCTURE
     1 DOO         1 TEMP              0 ****  ****    0 ROOT
