@<TRIPOS>MOLECULE
molecule
   55    54     1     0     0
SMALL
bcc


@<TRIPOS>ATOM
      1 P            0.0000     0.0000     0.0000 p5         1 DOP       1.289800
      2 O1           1.6090     0.0000     0.0000 os         1 DOP      -0.550200
      3 O1'         -0.5370     0.0000     1.5170 os         1 DOP      -0.550200
      4 O2          -0.5370     1.3140    -0.7600 o          1 DOP      -0.827000
      5 O3          -0.4930    -1.2090    -0.6970 o          1 DOP      -0.827000
      6 C1           2.0230     0.0000    -1.3670 c3         1 DOP       0.157400
      7 C2           3.5500    -0.0000    -1.4400 c3         1 DOP      -0.083400
      8 C3           3.9930    -0.0000    -2.9040 c3         1 DOP      -0.082400
      9 C4           5.5210    -0.0000    -2.9760 c3         1 DOP      -0.081400
     10 C5           5.9640     0.0010    -4.4400 c3         1 DOP      -0.082400
     11 C6           7.4920     0.0000    -4.5110 c3         1 DOP      -0.082400
     12 C7           7.9340     0.0000    -5.9750 c3         1 DOP      -0.084400
     13 C8           9.4630    -0.0000    -6.0470 c3         1 DOP      -0.092100
     14 C1'         -1.9640     0.0000     1.4510 c3         1 DOP       0.157400
     15 C2'         -2.5410    -0.0000     2.8670 c3         1 DOP      -0.083400
     16 C3'         -4.0690    -0.0000     2.7960 c3         1 DOP      -0.082400
     17 C4'         -4.6470    -0.0010     4.2130 c3         1 DOP      -0.081400
     18 C5'         -6.1750     0.0000     4.1420 c3         1 DOP      -0.082400
     19 C6'         -6.7520    -0.0000     5.5580 c3         1 DOP      -0.082400
     20 C7'         -8.2790    -0.0000     5.4870 c3         1 DOP      -0.084400
     21 C8'         -8.8570    -0.0000     6.9030 c3         1 DOP      -0.092100
     22 H11          1.6380    -0.8840    -1.8610 h1         1 DOP       0.052700
     23 H12          1.6380     0.8850    -1.8600 h1         1 DOP       0.052700
     24 H21          3.9350     0.8840    -0.9460 hc         1 DOP       0.039700
     25 H22          3.9350    -0.8850    -0.9460 hc         1 DOP       0.039700
     26 H31          3.6090     0.8850    -3.3970 hc         1 DOP       0.041700
     27 H32          3.6090    -0.8840    -3.3970 hc         1 DOP       0.041700
     28 H41          5.9050    -0.8850    -2.4830 hc         1 DOP       0.037200
     29 H42          5.9060     0.8830    -2.4810 hc         1 DOP       0.037200
     30 H51          5.5800    -0.8830    -4.9340 hc         1 DOP       0.040200
     31 H52          5.5800     0.8850    -4.9320 hc         1 DOP       0.040200
     32 H61          7.8770     0.8840    -4.0180 hc         1 DOP       0.038700
     33 H62          7.8760    -0.8850    -4.0180 hc         1 DOP       0.038700
     34 H71          7.5500    -0.8840    -6.4680 hc         1 DOP       0.038700
     35 H72          7.5500     0.8850    -6.4680 hc         1 DOP       0.038700
     36 H81          9.8480    -0.8850    -5.5540 hc         1 DOP       0.028700
     37 H82          9.8480     0.8840    -5.5540 hc         1 DOP       0.028700
     38 H83          9.7760    -0.0000    -7.0840 hc         1 DOP       0.028700
     39 H1'1        -2.3000     0.8850     0.9240 h1         1 DOP       0.052700
     40 H1'2        -2.3010    -0.8840     0.9230 h1         1 DOP       0.052700
     41 H2'1        -2.2040    -0.8850     3.3940 hc         1 DOP       0.039700
     42 H2'2        -2.2040     0.8840     3.3950 hc         1 DOP       0.039700
     43 H3'1        -4.4060    -0.8840     2.2690 hc         1 DOP       0.041700
     44 H3'2        -4.4060     0.8850     2.2700 hc         1 DOP       0.041700
     45 H4'1        -4.3100    -0.8860     4.7390 hc         1 DOP       0.037200
     46 H4'2        -4.3090     0.8830     4.7400 hc         1 DOP       0.037200
     47 H5'1        -6.5120    -0.8830     3.6140 hc         1 DOP       0.040200
     48 H5'2        -6.5110     0.8850     3.6150 hc         1 DOP       0.040200
     49 H6'1        -6.4150     0.8840     6.0860 hc         1 DOP       0.038700
     50 H6'2        -6.4150    -0.8850     6.0850 hc         1 DOP       0.038700
     51 H7'1        -8.6160     0.8850     4.9600 hc         1 DOP       0.038700
     52 H7'2        -8.6160    -0.8840     4.9600 hc         1 DOP       0.038700
     53 H8'1        -8.5200    -0.8850     7.4300 hc         1 DOP       0.028700
     54 H8'2        -9.9390    -0.0000     6.8520 hc         1 DOP       0.028700
     55 H8'3        -8.5200     0.8840     7.4310 hc         1 DOP       0.028700
@<TRIPOS>BOND
     1     1     2 1
     2     1     3 1
     3     1     4 1
     4     1     5 1
     5     2     6 1
     6     3    14 1
     7     6     7 1
     8     6    22 1
     9     6    23 1
    10     7     8 1
    11     7    24 1
    12     7    25 1
    13     8     9 1
    14     8    26 1
    15     8    27 1
    16     9    10 1
    17     9    28 1
    18     9    29 1
    19    10    11 1
    20    10    30 1
    21    10    31 1
    22    11    12 1
    23    11    32 1
    24    11    33 1
    25    12    13 1
    26    12    34 1
    27    12    35 1
    28    13    36 1
    29    13    37 1
    30    13    38 1
    31    14    15 1
    32    14    39 1
    33    14    40 1
    34    15    16 1
    35    15    41 1
    36    15    42 1
    37    16    17 1
    38    16    43 1
    39    16    44 1
    40    17    18 1
    41    17    45 1
    42    17    46 1
    43    18    19 1
    44    18    47 1
    45    18    48 1
    46    19    20 1
    47    19    49 1
    48    19    50 1
    49    20    21 1
    50    20    51 1
    51    20    52 1
    52    21    53 1
    53    21    54 1
    54    21    55 1
@<TRIPOS>SUBSTRUCTURE
     1 DOP         1 TEMP              0 ****  ****    0 ROOT
