@<TRIPOS>MOLECULE
DOQ
   40    43     1     0     0
SMALL
bcc


@<TRIPOS>ATOM
      1 OAD          0.0000     0.0000     0.0000 o          1 DOQ      -0.629500
      2 CAQ          1.2090     0.0000     0.0000 c2         1 DOQ       0.379000
      3 OAG          1.8790     0.0020    -1.1630 o          1 DOQ      -0.629500
      4 CAS          1.9620     0.0000     1.3060 DU         1 DOQ      -0.026000
      5 CAB          2.8420    -1.2490     1.3860 c3         1 DOQ      -0.125000
      6 CAK          0.9820    -0.0010     2.4510 c2         1 DOQ      -0.327000
      7 CAI          0.9880     0.9950     3.3300 c3         1 DOQ      -0.173000
      8 CAJ          0.0330     0.9940     4.4490 c3         1 DOQ      -0.253000
      9 CAP          0.1040     1.9350     5.3840 c2         1 DOQ      -0.256000
     10 CAA         -0.9530     2.0120     6.4560 c3         1 DOQ      -0.032000
     11 CAT          1.2400     2.9240     5.3730 c3         1 DOQ      -0.051000
     12 CAL          0.7410     4.3200     5.8040 c3         1 DOQ      -0.116000
     13 N            1.8530     4.8830     6.6110 n7         1 DOQ      -0.038000
     14 CA           2.3500     3.7290     7.4030 c3         1 DOQ      -0.125000
     15 C            3.7650     3.9760     7.8610 c2         1 DOQ       0.426000
     16 O            4.5310     4.5850     7.1520 o          1 DOQ      -0.633000
     17 OXT          4.1730     3.5200     9.0550 o          1 DOQ      -0.633000
     18 CB           2.3010     2.5340     6.4230 c3         1 DOQ      -0.049000
     19 CG           1.8790     1.2600     7.1580 c3         1 DOQ      -0.177000
     20 CD           2.9610     0.8590     8.1270 c2         1 DOQ       0.370000
     21 OE2          2.7330    -0.1160     9.0210 o          1 DOQ      -0.618500
     22 OE1          4.0330     1.4140     8.1000 o          1 DOQ      -0.618500
     23 HAS          2.5840     0.8850     1.3640 ha         1 DOQ       0.082000
     24 HAB1         2.7110    -1.8410     0.4880 hc         1 DOQ       0.036000
     25 HAB2         2.5580    -1.8370     2.2510 hc         1 DOQ       0.036000
     26 HAB3         3.8810    -0.9540     1.4750 hc         1 DOQ       0.036000
     27 HAK          0.8740     0.5960     1.5530 DU         1 DOQ       0.154000
     28 HAI         -0.0560     1.2710     3.2430 DU         1 DOQ       0.263000
     29 HAJ          1.0220     0.5640     4.5440 DU         1 DOQ       0.263000
     30 HAA1        -1.2250     1.0110     6.7680 hc         1 DOQ       0.036000
     31 HAA2        -0.5650     2.5610     7.3060 hc         1 DOQ       0.036000
     32 HAA3        -1.8270     2.5190     6.0660 hc         1 DOQ       0.036000
     33 HAT          1.6900     2.9770     4.3890 hc         1 DOQ       0.075000
     34 HAL1         0.5560     4.9380     4.9340 h1         1 DOQ       0.023500
     35 HAL2        -0.1540     4.2290     6.4080 h1         1 DOQ       0.023500
     36 HN           1.4950     5.5830     7.2310 hn         1 DOQ       0.007000
     37 HA           1.7000     3.5470     8.2500 h1         1 DOQ       0.048000
     38 HB           3.2650     2.3990     5.9480 hc         1 DOQ       0.105000
     39 HG1          1.7240     0.4640     6.4410 hc         1 DOQ       0.040000
     40 HG2          0.9590     1.4440     7.7000 hc         1 DOQ       0.040000
@<TRIPOS>BOND
     1     1     2 1   
     2     2     3 1   
     3     2     4 1   
     4     4     5 1   
     5     4     6 1   
     6     4    23 1   
     7     4    27 1   
     8     5    24 1   
     9     5    25 1   
    10     5    26 1   
    11     6     7 1   
    12     6    27 1   
    13     7     8 1   
    14     7    28 1   
    15     7    29 1   
    16     8     9 1   
    17     8    28 1   
    18     8    29 1   
    19     9    10 1   
    20     9    11 1   
    21    10    30 1   
    22    10    31 1   
    23    10    32 1   
    24    11    12 1   
    25    11    18 1   
    26    11    33 1   
    27    12    13 1   
    28    12    34 1   
    29    12    35 1   
    30    13    14 1   
    31    13    36 1   
    32    14    15 1   
    33    14    18 1   
    34    14    37 1   
    35    15    16 1   
    36    15    17 1   
    37    18    19 1   
    38    18    38 1   
    39    19    20 1   
    40    19    39 1   
    41    19    40 1   
    42    20    21 1   
    43    20    22 1   
@<TRIPOS>SUBSTRUCTURE
     1 DOQ         1 TEMP              0 ****  ****    0 ROOT
