@<TRIPOS>MOLECULE
molecule
   40    40     1     0     0
SMALL
bcc


@<TRIPOS>ATOM
      1 OAD          0.0000     0.0000     0.0000 o          1 DOQ      -0.870800
      2 CAQ          1.2090     0.0000     0.0000 c          1 DOQ       0.901600
      3 OAG          1.8790     0.0020    -1.1630 o          1 DOQ      -0.870800
      4 CAS          1.9620     0.0000     1.3060 c3         1 DOQ      -0.142500
      5 CAB          2.8420    -1.2490     1.3860 c3         1 DOQ      -0.058100
      6 CAK          0.9820    -0.0010     2.4510 c2         1 DOQ      -0.120200
      7 CAI          0.9880     0.9950     3.3300 ce         1 DOQ      -0.162000
      8 CAJ          0.0330     0.9940     4.4490 ce         1 DOQ      -0.159000
      9 CAP          0.1040     1.9350     5.3840 c2         1 DOQ      -0.090400
     10 CAA         -0.9530     2.0120     6.4560 c3         1 DOQ      -0.047900
     11 CAT          1.2400     2.9240     5.3730 c3         1 DOQ      -0.044500
     12 CAL          0.7410     4.3200     5.8040 c3         1 DOQ       0.129800
     13 N            1.8530     4.8830     6.6110 n7         1 DOQ      -0.769200
     14 CA           2.3500     3.7290     7.4030 c3         1 DOQ       0.060500
     15 C            3.7650     3.9760     7.8610 c          1 DOQ       0.924600
     16 O            4.5310     4.5850     7.1520 o          1 DOQ      -0.849300
     17 OXT          4.1730     3.5200     9.0550 o          1 DOQ      -0.849300
     18 CB           2.3010     2.5340     6.4230 c3         1 DOQ      -0.018700
     19 CG           1.8790     1.2600     7.1580 c3         1 DOQ      -0.182400
     20 CD           2.9610     0.8590     8.1270 c          1 DOQ       0.875600
     21 OE2          2.7330    -0.1160     9.0210 o          1 DOQ      -0.843800
     22 OE1          4.0330     1.4140     8.1000 o          1 DOQ      -0.843800
     23 HAS          2.5840     0.8850     1.3640 hc         1 DOQ       0.050700
     24 HAB1         3.0270    -1.4950     2.4250 hc         1 DOQ       0.016700
     25 HAB2         3.7850    -1.0600     0.8860 hc         1 DOQ       0.016700
     26 HAB3         2.3380    -2.0780     0.9030 hc         1 DOQ       0.016700
     27 HAK          0.2740    -0.8140     2.5570 ha         1 DOQ       0.109000
     28 HAI          1.6960     1.8070     3.2240 ha         1 DOQ       0.133000
     29 HAJ         -0.7850     0.2830     4.4590 ha         1 DOQ       0.098000
     30 HAA1        -0.6520     2.7310     7.2090 hc         1 DOQ       0.028033
     31 HAA2        -1.0740     1.0380     6.9150 hc         1 DOQ       0.028033
     32 HAA3        -1.8920     2.3230     6.0160 hc         1 DOQ       0.028033
     33 HAT          1.6900     2.9770     4.3890 hc         1 DOQ       0.059700
     34 HAL1        -0.1540     4.2290     6.4080 h1         1 DOQ       0.000200
     35 HAL2         0.5560     4.9380     4.9340 h1         1 DOQ       0.000200
     36 HN           1.4950     5.5830     7.2310 hn         1 DOQ       0.300800
     37 HA           1.7000     3.5470     8.2500 h1         1 DOQ       0.016700
     38 HB           3.2650     2.3990     5.9480 hc         1 DOQ       0.088700
     39 HG1          1.7240     0.4640     6.4410 hc         1 DOQ       0.018200
     40 HG2          0.9590     1.4440     7.7000 hc         1 DOQ       0.018200
@<TRIPOS>BOND
     1     1     2 1
     2     2     3 1
     3     2     4 1
     4     4     5 1
     5     4     6 1
     6     4    23 1
     7     5    24 1
     8     5    25 1
     9     5    26 1
    10     6     7 2
    11     6    27 1
    12     7     8 1
    13     7    28 1
    14     8     9 2
    15     8    29 1
    16     9    10 1
    17     9    11 1
    18    10    30 1
    19    10    31 1
    20    10    32 1
    21    11    12 1
    22    11    18 1
    23    11    33 1
    24    12    13 1
    25    12    34 1
    26    12    35 1
    27    13    14 1
    28    13    36 1
    29    14    15 1
    30    14    18 1
    31    14    37 1
    32    15    16 1
    33    15    17 1
    34    18    19 1
    35    18    38 1
    36    19    20 1
    37    19    39 1
    38    19    40 1
    39    20    21 1
    40    20    22 1
@<TRIPOS>SUBSTRUCTURE
     1 DOQ         1 TEMP              0 ****  ****    0 ROOT
