@<TRIPOS>MOLECULE
molecule
   16    16     1     0     0
SMALL
bcc


@<TRIPOS>ATOM
      1 O2           0.0000     0.0000     0.0000 o          1 DOR      -0.723500
      2 C2           1.2150     0.0000     0.0000 c          1 DOR       0.837500
      3 N1           1.8710     0.0000     1.1720 ns         1 DOR      -0.558900
      4 N3           1.8720    -0.0010    -1.1730 ns         1 DOR      -0.567500
      5 C4           3.1930    -0.2420    -1.2270 c          1 DOR       0.712500
      6 O4           3.7830    -0.1600    -2.2840 o          1 DOR      -0.649500
      7 C5           3.9440    -0.6140     0.0280 c3         1 DOR      -0.153400
      8 C6           3.3290     0.1240     1.2180 c3         1 DOR      -0.015300
      9 C7           3.7120     1.5800     1.1580 c          1 DOR       0.870600
     10 O72          4.9240     1.9750     1.5810 o          1 DOR      -0.824300
     11 O71          2.9280     2.3940     0.7290 o          1 DOR      -0.824300
     12 HN1          1.3550    -0.0860     2.0250 hn         1 DOR       0.331500
     13 HN3          1.3690     0.1800    -2.0190 hn         1 DOR       0.340500
     14 H51          4.9600    -0.2560    -0.0850 hc         1 DOR       0.081700
     15 H52          3.7910    -1.6740     0.1920 hc         1 DOR       0.081700
     16 H6           3.6970    -0.3120     2.1390 h1         1 DOR       0.060700
@<TRIPOS>BOND
     1     1     2 2
     2     2     3 1
     3     2     4 1
     4     3     8 1
     5     3    12 1
     6     4     5 1
     7     4    13 1
     8     5     6 2
     9     5     7 1
    10     7     8 1
    11     7    14 1
    12     7    15 1
    13     8     9 1
    14     8    16 1
    15     9    10 1
    16     9    11 1
@<TRIPOS>SUBSTRUCTURE
     1 DOR         1 TEMP              0 ****  ****    0 ROOT
