@<TRIPOS>MOLECULE
molecule
   56    59     1     0     0
SMALL
bcc


@<TRIPOS>ATOM
      1 PG           0.0000     0.0000     0.0000 p5         1 DOT       1.341900
      2 O1G          1.6100     0.0000     0.0000 o          1 DOT      -0.807500
      3 O2G         -0.4930     0.0000     1.3950 o          1 DOT      -0.807500
      4 O3G         -0.5370     1.3140    -0.7600 o          1 DOT      -0.807500
      5 PB          -0.7190    -2.8560    -0.3310 p5         1 DOT       1.519800
      6 O1B          0.4360    -3.2800     0.4920 o          1 DOT      -0.863000
      7 O2B         -2.0750    -3.0190     0.5220 o          1 DOT      -0.863000
      8 O3B         -0.5360    -1.3150    -0.7580 os         1 DOT      -0.734800
      9 PA          -0.6760    -5.3550    -1.9240 p5         1 DOT       1.438800
     10 O1A          0.4040    -5.9170    -1.0830 o          1 DOT      -0.850000
     11 O2A         -2.0690    -6.0750    -1.5610 o          1 DOT      -0.850000
     12 O3A         -0.8010    -3.7740    -1.6520 os         1 DOT      -0.725800
     13 O5'         -0.3320    -5.6060    -3.4780 os         1 DOT      -0.590200
     14 C5B         -0.0550    -6.9010    -4.0140 c3         1 DOT       0.240400
     15 C4B          0.2290    -6.7820    -5.5120 c3         1 DOT       0.133100
     16 O4'          1.4540    -6.0510    -5.7410 os         1 DOT      -0.366600
     17 C3B          0.5200    -8.1760    -6.1250 c3         1 DOT       0.107100
     18 O3'         -0.7120    -8.8390    -6.5140 os         1 DOT      -0.403900
     19 C2B          1.3690    -7.8130    -7.3690 c3         1 DOT      -0.153400
     20 C1B          1.9150    -6.4060    -7.0550 c3         1 DOT       0.249800
     21 N9           3.3800    -6.4230    -7.0810 na         1 DOT      -0.249000
     22 C8           4.2030    -6.5970    -6.0080 cc         1 DOT       0.455700
     23 N7           5.4470    -6.5570    -6.3920 nd         1 DOT      -0.617100
     24 C5           5.5000    -6.3560    -7.7310 ca         1 DOT      -0.148200
     25 C6           6.5350    -6.2300    -8.6700 ca         1 DOT       0.681200
     26 N6           7.8610    -6.3090    -8.2790 nv         1 DOT      -1.067500
     27 N1           6.2140    -6.0330    -9.9450 nb         1 DOT      -0.791000
     28 C2           4.9540    -5.9580   -10.3280 ca         1 DOT       0.632900
     29 N3           3.9500    -6.0690    -9.4840 nb         1 DOT      -0.778000
     30 C4           4.1740    -6.2730    -8.1900 ca         1 DOT       0.443800
     31 C'          -0.7220   -10.1860    -6.4650 c          1 DOT       0.656700
     32 O1'          0.2710   -10.7900    -6.1080 o          1 DOT      -0.612000
     33 C1'         -1.9380   -10.9260    -6.8450 ca         1 DOT      -0.206600
     34 C2'         -1.9200   -12.3290    -6.9100 ca         1 DOT       0.239600
     35 N2'         -0.7560   -13.0260    -6.6160 nv         1 DOT      -0.934200
     36 C3'         -3.0730   -13.0150    -7.2710 ca         1 DOT      -0.229000
     37 C4'         -4.2290   -12.3200    -7.5620 ca         1 DOT      -0.152000
     38 C5'         -4.2490   -10.9350    -7.4990 ca         1 DOT      -0.203000
     39 C6'         -3.1180   -10.2370    -7.1390 ca         1 DOT      -0.055000
     40 H5'1        -0.9110    -7.5470    -3.8590 h1         1 DOT       0.037200
     41 H5'2         0.8100    -7.3210    -3.5150 h1         1 DOT       0.037200
     42 H4B         -0.5970    -6.3070    -6.0270 h1         1 DOT       0.069700
     43 H3B          1.0930    -8.7850    -5.4360 h1         1 DOT       0.092700
     44 H2'1         2.1840    -8.5170    -7.4880 hc         1 DOT       0.061200
     45 H2'2         0.7470    -7.7880    -8.2560 hc         1 DOT       0.061200
     46 H1'          1.5370    -5.6960    -7.7800 h2         1 DOT       0.077700
     47 H8           3.8720    -6.7450    -4.9880 h5         1 DOT       0.111800
     48 HN61         8.3510    -5.4810    -8.0010 hn         1 DOT       0.419300
     49 HN62         8.3350    -7.1900    -8.2930 hn         1 DOT       0.419300
     50 H2           4.7370    -5.7970   -11.3780 h5         1 DOT       0.027100
     51 H2B         -0.5320   -13.8610    -7.1210 hn         1 DOT       0.432300
     52 H2D         -0.1320   -12.6850    -5.9120 hn         1 DOT       0.432300
     53 H3'         -3.0650   -14.0970    -7.3210 ha         1 DOT       0.100000
     54 H4'         -5.1250   -12.8600    -7.8420 ha         1 DOT       0.092000
     55 H5'         -5.1610   -10.3980    -7.7340 ha         1 DOT       0.107000
     56 H6'         -3.4310    -9.2010    -7.1920 ha         1 DOT       0.146000
@<TRIPOS>BOND
     1     1     2 1
     2     1     3 1
     3     1     4 1
     4     1     8 1
     5     5     6 1
     6     5     7 1
     7     5     8 1
     8     5    12 1
     9     9    10 1
    10     9    11 1
    11     9    12 1
    12     9    13 1
    13    13    14 1
    14    14    15 1
    15    14    40 1
    16    14    41 1
    17    15    16 1
    18    15    17 1
    19    15    42 1
    20    16    20 1
    21    17    18 1
    22    17    19 1
    23    17    43 1
    24    18    31 1
    25    19    20 1
    26    19    44 1
    27    19    45 1
    28    20    21 1
    29    20    46 1
    30    21    22 1
    31    21    30 1
    32    22    23 2
    33    22    47 1
    34    23    24 1
    35    24    25 ar
    36    24    30 ar
    37    25    26 1
    38    25    27 ar
    39    26    48 1
    40    26    49 1
    41    27    28 ar
    42    28    29 ar
    43    28    50 1
    44    29    30 ar
    45    31    32 2
    46    31    33 1
    47    33    34 ar
    48    33    39 ar
    49    34    35 1
    50    34    36 ar
    51    35    51 1
    52    35    52 1
    53    36    37 ar
    54    36    53 1
    55    37    38 ar
    56    37    54 1
    57    38    39 ar
    58    38    55 1
    59    39    56 1
@<TRIPOS>SUBSTRUCTURE
     1 DOT         1 TEMP              0 ****  ****    0 ROOT
