@<TRIPOS>MOLECULE
molecule
   67    71     1     0     0
SMALL
bcc


@<TRIPOS>ATOM
      1 F27          0.0000     0.0000     0.0000 f          1 DOV      -0.256300
      2 C4           1.3990     0.0000     0.0000 c3         1 DOV       0.150600
      3 C5           1.9130     0.0000     1.4430 c3         1 DOV      -0.101400
      4 C6           3.4420    -0.0190     1.4530 c3         1 DOV      -0.080400
      5 C1           3.9540    -1.2620     0.7180 c3         1 DOV      -0.096400
      6 C2           3.4400    -1.2340    -0.7190 c3         1 DOV       0.126700
      7 N7           3.9520    -2.3520    -1.4950 ns         1 DOV      -0.576900
      8 C8           3.2390    -2.9780    -2.4350 c          1 DOV       0.698500
      9 O28          3.7820    -3.8550    -3.0750 o          1 DOV      -0.558500
     10 C9           1.8040    -2.6640    -2.7450 c3         1 DOV      -0.156700
     11 C10          1.4130    -1.3060    -2.1530 c3         1 DOV       0.110500
     12 N29         -0.0480    -1.1570    -2.1790 nz         1 DOV      -0.835600
     13 C3           1.9110    -1.2540    -0.7080 c3         1 DOV      -0.140700
     14 C11          1.6110    -2.6280    -4.2630 c3         1 DOV       0.364700
     15 N15          0.1650    -2.4570    -4.5840 n7         1 DOV      -0.837200
     16 C14         -0.0070    -3.2750    -5.7930 c3         1 DOV       0.111500
     17 C19         -1.4130    -3.7730    -6.0730 c3         1 DOV      -0.072400
     18 C18         -1.3400    -4.6710    -7.3190 c3         1 DOV      -0.122400
     19 C17         -0.3710    -5.8310    -7.1150 c3         1 DOV       0.172500
     20 C16          1.0230    -5.3320    -6.6980 c3         1 DOV      -0.071400
     21 C13          0.8510    -4.5180    -5.4310 c3         1 DOV       0.114500
     22 N12          2.0540    -3.9160    -4.8580 n7         1 DOV      -0.765200
     23 N20         -0.2550    -6.5880    -8.3690 n3         1 DOV      -0.709600
     24 C25         -1.5330    -7.2230    -8.7200 c3         1 DOV       0.112300
     25 C24         -1.3500    -8.0640    -9.9860 c3         1 DOV       0.164800
     26 N23         -0.8760    -7.2030   -11.0780 n3         1 DOV      -0.715600
     27 C26         -1.8850    -6.1960   -11.4310 c3         1 DOV       0.140100
     28 C22          0.4020    -6.5670   -10.7260 c3         1 DOV       0.164800
     29 C21          0.2200    -5.7270    -9.4610 c3         1 DOV       0.112300
     30 H4           1.7670     0.8800    -0.5140 h1         1 DOV       0.078700
     31 H51C         1.5400    -0.8790     1.9560 hc         1 DOV       0.076700
     32 H52C         1.5620     0.8920     1.9480 hc         1 DOV       0.076700
     33 H3           1.5660    -2.1330    -0.1760 hc         1 DOV       0.095700
     34 H61C         3.7930    -0.0390     2.4780 hc         1 DOV       0.069700
     35 H62C         3.8140     0.8690     0.9570 hc         1 DOV       0.069700
     36 H11C         3.5890    -2.1530     1.2160 hc         1 DOV       0.072200
     37 H12C         5.0370    -1.2600     0.7150 hc         1 DOV       0.072200
     38 H2           3.7690    -0.3120    -1.1840 h1         1 DOV       0.058700
     39 H7           4.8850    -2.6670    -1.3170 hn         1 DOV       0.358500
     40 H9           1.1720    -3.4330    -2.3170 hc         1 DOV       0.095700
     41 H10          1.8760    -0.5130    -2.7260 hx         1 DOV       0.120700
     42 H11          2.1790    -1.8120    -4.6910 h2         1 DOV       0.081700
     43 H291        -0.3030    -0.2880    -1.7520 hn         1 DOV       0.463800
     44 H292        -0.4700    -1.9120    -1.6750 hn         1 DOV       0.463800
     45 H15         -0.3890    -2.8370    -3.8420 hn         1 DOV       0.320800
     46 H12          2.7170    -3.7370    -5.5860 hn         1 DOV       0.381800
     47 H14          0.4030    -2.7690    -6.6590 h1         1 DOV       0.094700
     48 H191        -1.7760    -4.3450    -5.2280 hc         1 DOV       0.050200
     49 H192        -2.0690    -2.9320    -6.2650 hc         1 DOV       0.050200
     50 H13          0.3420    -5.1100    -4.6800 h1         1 DOV       0.075700
     51 H181        -1.0080    -4.0780    -8.1620 hc         1 DOV       0.061200
     52 H182        -2.3260    -5.0680    -7.5250 hc         1 DOV       0.061200
     53 H17         -0.7580    -6.4800    -6.3390 h1         1 DOV       0.067700
     54 H161         1.4390    -4.7090    -7.4810 hc         1 DOV       0.069700
     55 H162         1.6730    -6.1770    -6.5070 hc         1 DOV       0.069700
     56 H251        -1.8530    -7.8620    -7.9060 h1         1 DOV       0.038200
     57 H252        -2.2780    -6.4580    -8.9010 h1         1 DOV       0.038200
     58 H211         1.1680    -5.2830    -9.1840 h1         1 DOV       0.038200
     59 H212        -0.5090    -4.9470    -9.6480 h1         1 DOV       0.038200
     60 H241        -2.2980    -8.5090   -10.2630 h1         1 DOV       0.068200
     61 H242        -0.6200    -8.8420    -9.7980 h1         1 DOV       0.068200
     62 H261        -2.7610    -6.3290   -10.8070 h1         1 DOV       0.034700
     63 H262        -1.4770    -5.2050   -11.2740 h1         1 DOV       0.034700
     64 H263        -2.1630    -6.3120   -12.4710 h1         1 DOV       0.034700
     65 H221         1.1470    -7.3320   -10.5460 h1         1 DOV       0.068200
     66 H222         0.7230    -5.9280   -11.5400 h1         1 DOV       0.068200
     67 H293        -0.3670    -1.1610    -3.1270 hn         1 DOV       0.463800
@<TRIPOS>BOND
     1     1     2 1
     2     2     3 1
     3     2    13 1
     4     3     4 1
     5     4     5 1
     6     5     6 1
     7     6     7 1
     8     6    13 1
     9     7     8 1
    10     8     9 2
    11     8    10 1
    12    10    11 1
    13    10    14 1
    14    11    12 1
    15    11    13 1
    16    14    15 1
    17    14    22 1
    18    15    16 1
    19    16    17 1
    20    16    21 1
    21    17    18 1
    22    18    19 1
    23    19    20 1
    24    19    23 1
    25    20    21 1
    26    21    22 1
    27    23    24 1
    28    23    29 1
    29    24    25 1
    30    25    26 1
    31    26    27 1
    32    26    28 1
    33    28    29 1
    34     2    30 1
    35     3    31 1
    36     3    32 1
    37    13    33 1
    38     4    34 1
    39     4    35 1
    40     5    36 1
    41     5    37 1
    42     6    38 1
    43     7    39 1
    44    10    40 1
    45    11    41 1
    46    14    42 1
    47    12    43 1
    48    12    44 1
    49    15    45 1
    50    22    46 1
    51    16    47 1
    52    17    48 1
    53    17    49 1
    54    21    50 1
    55    18    51 1
    56    18    52 1
    57    19    53 1
    58    20    54 1
    59    20    55 1
    60    24    56 1
    61    24    57 1
    62    29    58 1
    63    29    59 1
    64    25    60 1
    65    25    61 1
    66    27    62 1
    67    27    63 1
    68    27    64 1
    69    28    65 1
    70    28    66 1
    71    67    12 1
@<TRIPOS>SUBSTRUCTURE
     1 DOV         1 TEMP              0 ****  ****    0 ROOT
