@<TRIPOS>MOLECULE
DOX
   14    14     1     0     0
SMALL
bcc


@<TRIPOS>ATOM
      1 C1          0.0030    0.0320   -0.0240 c3        1 DOX      0.091400
      2 C2          1.5260    0.0090   -0.0370 c3        1 DOX      0.091400
      3 O1          2.0470   -0.1000    1.2840 os        1 DOX     -0.412600
      4 C3          1.5250   -1.2270    1.9820 c3        1 DOX      0.091400
      5 C4          0.0020   -1.2040    1.9950 c3        1 DOX      0.091400
      6 O2         -0.5190   -1.0950    0.6740 os        1 DOX     -0.412600
      7 H11        -0.4120   -0.0660   -1.0600 h1        1 DOX      0.057200
      8 H12        -0.3710    0.9740    0.4570 h1        1 DOX      0.057200
      9 H21         1.9420    0.9760   -0.4210 h1        1 DOX      0.057200
     10 H22         1.9010   -0.8480   -0.6570 h1        1 DOX      0.057200
     11 H31         1.9400   -1.1290    3.0180 h1        1 DOX      0.057200
     12 H32         1.8990   -2.1690    1.5010 h1        1 DOX      0.057200
     13 H41        -0.4140   -2.1710    2.3790 h1        1 DOX      0.057200
     14 H42        -0.3730   -0.3470    2.6150 h1        1 DOX      0.057200
@<TRIPOS>BOND
     1    1    2 1   
     2    1    6 1   
     3    1    7 1   
     4    1    8 1   
     5    2    3 1   
     6    2    9 1   
     7    2   10 1   
     8    3    4 1   
     9    4    5 1   
    10    4   11 1   
    11    4   12 1   
    12    5    6 1   
    13    5   13 1   
    14    5   14 1   
@<TRIPOS>SUBSTRUCTURE
     1 DOX         1 TEMP              0 ****  ****    0 ROOT
