@<TRIPOS>MOLECULE
molecule
   14    14     1     0     0
SMALL
bcc


@<TRIPOS>ATOM
      1 C1           0.0000     0.0000     0.0000 c3         1 DOX       0.088400
      2 C2           1.5280     0.0000     0.0000 c3         1 DOX       0.088400
      3 O1           2.0090     0.0000     1.3440 os         1 DOX      -0.400600
      4 C3           1.5280    -1.1950     1.9580 c3         1 DOX       0.088400
      5 C4           0.0000    -1.1950     1.9580 c3         1 DOX       0.088400
      6 O2          -0.4810    -1.1950     0.6140 os         1 DOX      -0.400600
      7 H11         -0.3590     0.8580     0.5550 h1         1 DOX       0.056200
      8 H12         -0.3590     0.0480    -1.0210 h1         1 DOX       0.056200
      9 H21          1.8870    -0.8860    -0.5100 h1         1 DOX       0.056200
     10 H22          1.8870     0.8860    -0.5100 h1         1 DOX       0.056200
     11 H31          1.8870    -1.2440     2.9790 h1         1 DOX       0.056200
     12 H32          1.8870    -2.0540     1.4030 h1         1 DOX       0.056200
     13 H41         -0.3590    -0.3090     2.4680 h1         1 DOX       0.056200
     14 H42         -0.3590    -2.0810     2.4680 h1         1 DOX       0.056200
@<TRIPOS>BOND
     1     1     2 1
     2     1     6 1
     3     1     7 1
     4     1     8 1
     5     2     3 1
     6     2     9 1
     7     2    10 1
     8     3     4 1
     9     4     5 1
    10     4    11 1
    11     4    12 1
    12     5     6 1
    13     5    13 1
    14     5    14 1
@<TRIPOS>SUBSTRUCTURE
     1 DOX         1 TEMP              0 ****  ****    0 ROOT
