@<TRIPOS>MOLECULE
DOY
   36    38     1     0     0
SMALL
bcc


@<TRIPOS>ATOM
      1 C1           0.0000     0.0000     0.0000 ca         1 DOY      -0.152000
      2 C2           1.3830     0.0000     0.0000 ca         1 DOY      -0.048000
      3 C3           2.0690     0.0000     1.2050 ca         1 DOY      -0.018100
      4 S4           3.8320    -0.0090     1.2320 ss         1 DOY      -0.377000
      5 C5           4.2260     1.6910     1.7610 c3         1 DOY       0.145700
      6 C6           5.6350     1.7500     2.2910 ca         1 DOY      -0.077300
      7 C7           6.0750     0.7990     3.1920 ca         1 DOY      -0.077500
      8 C8           7.3680     0.8530     3.6770 ca         1 DOY      -0.109500
      9 C9           8.2210     1.8570     3.2610 ca         1 DOY      -0.109000
     10 C10          7.7810     2.8080     2.3600 ca         1 DOY      -0.109500
     11 C11          6.4900     2.7520     1.8700 ca         1 DOY      -0.077500
     12 C12          3.2340     2.0700     2.8730 c3         1 DOY      -0.118400
     13 C13          3.0410     0.9220     3.8190 c          1 DOY       0.626500
     14 O14          3.7730     0.8110     4.7790 o          1 DOY      -0.685500
     15 N15          2.0730     0.0180     3.6200 n          1 DOY       0.063000
     16 C16          1.7520    -0.9540     4.6680 c3         1 DOY      -0.091000
     17 C17          0.6880    -0.3860     5.5710 c          1 DOY       0.968600
     18 O18          0.2340    -1.1060     6.6090 o          1 DOY      -0.889800
     19 O19          0.2440     0.7180     5.3620 o          1 DOY      -0.889800
     20 C20          1.3670     0.0030     2.4070 ca         1 DOY      -0.014400
     21 C21         -0.0180    -0.0010     2.4000 ca         1 DOY      -0.109000
     22 C22         -0.6970    -0.0020     1.1940 ca         1 DOY      -0.072000
     23 H1          -0.5390    -0.0010    -0.9400 ha         1 DOY       0.094000
     24 H2           1.9280     0.0020    -0.9360 ha         1 DOY       0.107000
     25 H5           4.1130     2.3700     0.9240 h1         1 DOY       0.043700
     26 H7           5.4060     0.0110     3.5180 ha         1 DOY       0.125000
     27 H8           7.7130     0.1070     4.3840 ha         1 DOY       0.097000
     28 H9           9.2340     1.9000     3.6430 ha         1 DOY       0.092000
     29 H10          8.4510     3.5940     2.0320 ha         1 DOY       0.097000
     30 H11          6.1450     3.4970     1.1630 ha         1 DOY       0.125000
     31 H12          2.2810     2.3280     2.4270 hc         1 DOY       0.045200
     32 H12A         3.6200     2.9210     3.4200 hc         1 DOY       0.045200
     33 H16          2.6420    -1.1670     5.2480 h1         1 DOY       0.038700
     34 H16A         1.3900    -1.8680     4.2140 h1         1 DOY       0.038700
     35 H21         -0.5660    -0.0020     3.3340 ha         1 DOY       0.174000
     36 H22         -1.7810    -0.0020     1.1860 ha         1 DOY       0.097000
@<TRIPOS>BOND
     1     1     2 ar  
     2     1    22 ar  
     3     1    23 1   
     4     2     3 ar  
     5     2    24 1   
     6     3     4 1   
     7     3    20 ar  
     8     4     5 1   
     9     5     6 1   
    10     5    12 1   
    11     5    25 1   
    12     6     7 ar  
    13     6    11 ar  
    14     7     8 ar  
    15     7    26 1   
    16     8     9 ar  
    17     8    27 1   
    18     9    10 ar  
    19     9    28 1   
    20    10    11 ar  
    21    10    29 1   
    22    11    30 1   
    23    12    13 1   
    24    12    31 1   
    25    12    32 1   
    26    13    14 2   
    27    13    15 1   
    28    15    16 1   
    29    15    20 1   
    30    16    17 1   
    31    16    33 1   
    32    16    34 1   
    33    17    18 1   
    34    17    19 1   
    35    20    21 ar  
    36    21    22 ar  
    37    21    35 1   
    38    22    36 1   
@<TRIPOS>SUBSTRUCTURE
     1 DOY         1 TEMP              0 ****  ****    0 ROOT
