@<TRIPOS>MOLECULE
molecule
   55    56     1     0     0
SMALL
bcc


@<TRIPOS>ATOM
      1 C1           0.0000     0.0000     0.0000 c3         1 DP0      -0.113000
      2 O1          -1.2000     2.0280    -0.1220 o          1 DP0      -0.406100
      3 C2           1.5300     0.0000     0.0000 c3         1 DP0      -0.074400
      4 N2           3.5010     1.2570     0.7290 n3         1 DP0      -0.707600
      5 C3           2.0390     1.3140     0.5960 c3         1 DP0       0.132800
      6 N3           0.3520    -2.0110    -1.3440 nb         1 DP0      -0.694000
      7 C4           4.1530     1.3320    -0.5850 c3         1 DP0       0.158000
      8 N4          -0.1760     1.4430    -2.0020 nz         1 DP0      -0.681400
      9 C5           3.9910     2.3170     1.6200 c3         1 DP0       0.158000
     10 C6          -0.5030     0.0000     1.4200 ca         1 DP0      -0.113300
     11 C7          -0.5020    -1.2310    -0.7100 ca         1 DP0       0.352600
     12 C8          -0.5020     1.2300    -0.7120 c          1 DP0       0.498100
     13 C9           4.2550    -0.0720    -1.1850 c3         1 DP0      -0.097600
     14 C10          3.3270     2.2230    -1.5140 c3         1 DP0      -0.097600
     15 C11          3.3850     2.1330     3.0130 c3         1 DP0      -0.097600
     16 C12          5.5150     2.2430     1.7130 c3         1 DP0      -0.097600
     17 C13         -0.4650     1.1630     2.1670 ca         1 DP0      -0.106500
     18 C14         -1.0070    -1.1610     1.9750 ca         1 DP0      -0.106500
     19 C15         -1.8510    -1.5290    -0.6900 ca         1 DP0      -0.234300
     20 C16         -0.9270     1.1640     3.4700 ca         1 DP0      -0.116000
     21 C17         -1.4680    -1.1610     3.2790 ca         1 DP0      -0.116000
     22 C18         -2.3030    -2.6630    -1.3470 ca         1 DP0      -0.084000
     23 C19         -1.4260     0.0010     4.0260 ca         1 DP0      -0.104000
     24 C20         -0.0410    -3.0980    -1.9780 ca         1 DP0       0.426200
     25 C21         -1.3760    -3.4600    -2.0020 ca         1 DP0      -0.218300
     26 H2           1.8910    -0.1000    -1.0160 hc         1 DP0       0.087700
     27 H2A          1.8910    -0.8300     0.5950 hc         1 DP0       0.087700
     28 H3           1.5940     1.4640     1.5720 h1         1 DP0       0.035700
     29 H3A          1.7670     2.1360    -0.0550 h1         1 DP0       0.035700
     30 H4           5.1460     1.7490    -0.4720 h1         1 DP0       0.054200
     31 HN4         -1.0010     1.3990    -2.5660 hn         1 DP0       0.478133
     32 HN4A         0.2440     2.3470    -2.0950 hn         1 DP0       0.478133
     33 H5           3.7000     3.2830     1.2260 h1         1 DP0       0.054200
     34 H9           5.2580    -0.2310    -1.5620 hc         1 DP0       0.041033
     35 H9A          4.0360    -0.8090    -0.4210 hc         1 DP0       0.041033
     36 H9B          3.5440    -0.1710    -1.9960 hc         1 DP0       0.041033
     37 H10          3.9510     2.5710    -2.3280 hc         1 DP0       0.041033
     38 H10A         2.4950     1.6560    -1.9140 hc         1 DP0       0.041033
     39 H10B         2.9510     3.0740    -0.9590 hc         1 DP0       0.041033
     40 H11          3.2260     1.0780     3.2010 hc         1 DP0       0.041033
     41 H11A         4.0620     2.5340     3.7570 hc         1 DP0       0.041033
     42 H11B         2.4380     2.6560     3.0670 hc         1 DP0       0.041033
     43 H12          5.8400     2.6500     2.6630 hc         1 DP0       0.041033
     44 H12A         5.8320     1.2100     1.6350 hc         1 DP0       0.041033
     45 H12B         5.9550     2.8170     0.9050 hc         1 DP0       0.041033
     46 H13         -0.1460     2.0900     1.7060 ha         1 DP0       0.138000
     47 H14         -0.7990    -2.1200     1.5160 ha         1 DP0       0.138000
     48 H15         -2.5480    -0.8840    -0.1680 ha         1 DP0       0.158000
     49 H16         -0.9620     2.0900     4.0300 ha         1 DP0       0.149500
     50 H17         -1.9340    -1.9910     3.7950 ha         1 DP0       0.149500
     51 H18         -3.3550    -2.9220    -1.3480 ha         1 DP0       0.163000
     52 H19         -1.8330     0.0290     5.0300 ha         1 DP0       0.150000
     53 H20          0.6890    -3.7150    -2.4880 h4         1 DP0       0.047100
     54 H21         -1.6930    -4.3540    -2.5250 ha         1 DP0       0.165000
     55 H43          0.4690     0.7400    -2.3040 hn         1 DP0       0.478133
@<TRIPOS>BOND
     1     1     3 1
     2     1    10 1
     3     1    11 1
     4     1    12 1
     5     2    12 2
     6     3     5 1
     7     4     5 1
     8     4     7 1
     9     4     9 1
    10     6    11 ar
    11     6    24 ar
    12     7    13 1
    13     7    14 1
    14     8    12 1
    15     9    15 1
    16     9    16 1
    17    10    17 ar
    18    10    18 ar
    19    11    19 ar
    20    17    20 ar
    21    18    21 ar
    22    19    22 ar
    23    20    23 ar
    24    21    23 ar
    25    22    25 ar
    26    24    25 ar
    27     3    26 1
    28     3    27 1
    29     5    28 1
    30     5    29 1
    31     7    30 1
    32     8    31 1
    33     8    32 1
    34     9    33 1
    35    13    34 1
    36    13    35 1
    37    13    36 1
    38    14    37 1
    39    14    38 1
    40    14    39 1
    41    15    40 1
    42    15    41 1
    43    15    42 1
    44    16    43 1
    45    16    44 1
    46    16    45 1
    47    17    46 1
    48    18    47 1
    49    19    48 1
    50    20    49 1
    51    21    50 1
    52    22    51 1
    53    23    52 1
    54    24    53 1
    55    25    54 1
    56    55     8 1
@<TRIPOS>SUBSTRUCTURE
     1 DP0         1 TEMP              0 ****  ****    0 ROOT
