@<TRIPOS>MOLECULE
DP1
   47    46     1     0     0
SMALL
bcc


@<TRIPOS>ATOM
      1 NH2          0.0000     0.0000     0.0000 n2         1 DP1      -0.802100
      2 CZ           1.3040     0.0000     0.0000 c2         1 DP1       0.564100
      3 NH1          1.9910     0.0000     1.1910 nu         1 DP1      -0.722500
      4 NO           1.2960    -0.1270     2.4010 no         1 DP1       1.036500
      5 O2           0.2770    -0.7930     2.4510 o          1 DP1      -0.395000
      6 O3           1.7100     0.4290     3.4020 o          1 DP1      -0.395000
      7 NE           1.9910    -0.0020    -1.1900 nu         1 DP1      -0.500200
      8 CD           1.2600    -0.0030    -2.4590 c3         1 DP1       0.205800
      9 CG           2.2540    -0.0040    -3.6220 c3         1 DP1      -0.051400
     10 CB           1.4900    -0.0060    -4.9470 c3         1 DP1      -0.029400
     11 CA           2.4850    -0.0070    -6.1100 c3         1 DP1      -0.139500
     12 N            3.2480     1.2480    -6.1030 nz         1 DP1       0.069400
     13 C            1.7360    -0.1310    -7.4110 c          1 DP1       0.580100
     14 O            1.5240     0.8530    -8.0860 o          1 DP1      -0.589100
     15 N'           1.3010    -1.3380    -7.8260 ns         1 DP1      -0.162900
     16 CA'          0.5730    -1.4590    -9.0910 c3         1 DP1      -0.038300
     17 C'          -0.8890    -1.1730    -8.8600 c          1 DP1       0.290100
     18 O'          -1.2830    -0.8950    -7.7460 o          1 DP1      -0.348100
     19 N1'         -1.7570    -1.2250    -9.8890 nz         1 DP1       0.212600
     20 CB'          0.7340    -2.8790    -9.6380 c3         1 DP1      -0.053400
     21 C1           2.2010    -3.1270    -9.9910 c3         1 DP1      -0.036200
     22 N1           2.3560    -4.4900   -10.5170 nz         1 DP1       0.098400
     23 HH2         -0.5000     0.0010     0.8670 hn         1 DP1       0.393400
     24 HH1          2.9880     0.0910     1.1940 hn         1 DP1       0.351800
     25 HNE          2.9920    -0.0060    -1.1890 hn         1 DP1       0.287800
     26 HD1          0.6370    -0.8870    -2.5160 h1         1 DP1       0.035200
     27 HD2          0.6370     0.8820    -2.5180 h1         1 DP1       0.035200
     28 HG1          2.8760    -0.8890    -3.5640 hc         1 DP1       0.019200
     29 HG2          2.8770     0.8800    -3.5660 hc         1 DP1       0.019200
     30 HB1          0.8670    -0.8900    -5.0040 hc         1 DP1       0.060200
     31 HB2          0.8670     0.8790    -5.0050 hc         1 DP1       0.060200
     32 HA           3.1640    -0.8440    -6.0030 hx         1 DP1       0.095700
     33 HN1          4.2060     1.0540    -5.8860 hn         1 DP1       0.248467
     34 HN2          2.8680     1.8650    -5.4130 hn         1 DP1       0.248467
     35 HN'          1.4280    -2.1420    -7.2430 hn         1 DP1       0.208500
     36 HA'          0.9710    -0.7490    -9.8060 h1         1 DP1       0.103700
     37 H1'1        -1.2800    -1.0010   -10.7390 hn         1 DP1       0.261467
     38 H1'2        -2.4950    -0.5670    -9.7370 hn         1 DP1       0.261467
     39 HB'1         0.1240    -2.9950   -10.5260 hc         1 DP1       0.049700
     40 HB'2         0.4170    -3.5930    -8.8870 hc         1 DP1       0.049700
     41 H11          2.8110    -3.0110    -9.1030 hx         1 DP1       0.091200
     42 H12          2.5180    -2.4120   -10.7410 hx         1 DP1       0.091200
     43 HN11         1.8240    -4.5850   -11.3590 hn         1 DP1       0.241133
     44 HN12         3.3220    -4.6650   -10.7100 hn         1 DP1       0.241133
     45 HN3          3.1990     1.6730    -7.0070 hn         1 DP1       0.248467
     46 H1'3        -2.1470    -2.1450    -9.9500 hn         1 DP1       0.261467
     47 H13          2.0360    -5.1490    -9.8350 hn         1 DP1       0.241133
@<TRIPOS>BOND
     1     1     2 2   
     2     1    23 1   
     3     2     3 1   
     4     2     7 1   
     5     3     4 1   
     6     3    24 1   
     7     4     5 1   
     8     4     6 1   
     9     7     8 1   
    10     7    25 1   
    11     8     9 1   
    12     8    26 1   
    13     8    27 1   
    14     9    10 1   
    15     9    28 1   
    16     9    29 1   
    17    10    11 1   
    18    10    30 1   
    19    10    31 1   
    20    11    12 1   
    21    11    13 1   
    22    11    32 1   
    23    12    33 1   
    24    12    34 1   
    25    12    45 1   
    26    13    14 2   
    27    13    15 1   
    28    15    16 1   
    29    15    35 1   
    30    16    17 1   
    31    16    20 1   
    32    16    36 1   
    33    17    18 2   
    34    17    19 1   
    35    19    37 1   
    36    19    38 1   
    37    19    46 1   
    38    20    21 1   
    39    20    39 1   
    40    20    40 1   
    41    21    22 1   
    42    21    41 1   
    43    21    42 1   
    44    22    43 1   
    45    22    44 1   
    46    22    47 1   
@<TRIPOS>SUBSTRUCTURE
     1 DP1         1 TEMP              0 ****  ****    0 ROOT
