@<TRIPOS>MOLECULE
DP2
   59    51     1     0     0
SMALL
bcc


@<TRIPOS>ATOM
      1 N1        804.1070-1134.7080  568.5530 n2        1 DP2      0.460000
      2 O2        805.2540-1134.2160  568.4740 oh        1 DP2     -0.099000
      3 O3        803.5270-1134.4740  569.6030 oh        1 DP2     -0.099000
      4 N        -328.4530  -91.1800  335.0990 n3        1 DP2     -0.183000
      5 CA       -328.2920  -91.0800  333.6790 c2        1 DP2     -0.094000
      6 C       -1172.5130 -249.4610-1211.8440 c1        1 DP2      0.466000
      7 N2      -1171.3080 -249.1170-1212.1550 n3        1 DP2     -0.265000
      8 O       -1173.6040 -249.7730-1211.5620 o         1 DP2      0.106000
      9 CB       -328.2250  -89.9210  333.0020 c2        1 DP2     -0.094000
     10 CG       -328.3360  -88.5470  333.5410 c3        1 DP2     -0.161000
     11 CD       -328.6310  -87.5660  332.3970 c3        1 DP2     -0.062000
     12 NE       -328.6790  -86.1840  332.8630 n3        1 DP2     -0.278000
     13 CZ       -328.9380  -85.2150  331.8370 c2        1 DP2      0.117000
     14 NH1      -328.1470  -83.9180  332.1340 n4        1 DP2     -0.111000
     15 NH2      -329.6700  -85.3720  330.8060 n2        1 DP2     -0.164000
     16 N'        227.4870  370.3250   42.3430 n4        1 DP2     -0.064000
     17 CA'       227.5190  369.6270   43.6580 c3        1 DP2     -0.137000
     18 O'       -330.0740  -92.7480  336.1040 o         1 DP2      0.119000
     19 CB'       228.1560  370.4580   44.7720 c3        1 DP2     -0.202000
     20 CG'       228.1480  369.6760   46.0730 c3        1 DP2     -0.286000
     21 CD'       228.7160  370.3300   47.2090 c2        1 DP2      0.314000
     22 CE'      1290.8900  769.0780-1181.5860 c1        1 DP2      0.281000
     23 NZ'      1289.8820  769.6370-1181.6040 n2        1 DP2     -0.057000
     24 HO2       805.6880-1134.4380  567.5890 ho        1 DP2      0.369500
     25 HO3       803.9920-1133.9180  570.3160 ho        1 DP2      0.369500
     26 HN       -327.8630  -90.6290  335.7110 hn        1 DP2      0.324000
     27 HA          4.8140   79.0040   -8.4060 ha        1 DP2      0.000000
     28 HN21     -328.1810  -92.0670  333.1810 h4        1 DP2      0.206000
     29 HN22    -1170.6170 -249.8190-1212.3850 hn        1 DP2      0.346000
     30 HB1       141.0200 -162.0320 -205.6170 ha        1 DP2      0.000000
     31 HB2       141.0710 -162.5850 -206.0040 ha        1 DP2      0.000000
     32 HG1      -328.0360  -90.0080  331.9100 ha        1 DP2      0.196000
     33 HG2      -329.1470  -88.4860  334.3160 hc        1 DP2      0.118500
     34 HD1      -327.3650  -88.2710  334.0430 hc        1 DP2      0.118500
     35 HD2      -327.8090  -87.6360  331.6280 h1        1 DP2      0.122000
     36 HNE      -329.5990  -87.8760  331.9040 h1        1 DP2      0.122000
     37 HH1      -328.2170  -83.2580  331.3550 hn        1 DP2      0.264667
     38 HH2      -329.7640  -84.6940  330.0800 hn        1 DP2      0.240000
     39 HA'       228.0960  368.6630   43.5160 hx        1 DP2      0.167000
     40 HB'1      226.4520  369.3670   43.9300 hx        1 DP2      0.167000
     41 HB'2      229.2150  370.7230   44.5000 hc        1 DP2      0.141000
     42 HG'1      227.5890  371.4210   44.9090 hc        1 DP2      0.141000
     43 HG'2      227.0820  369.3450   46.3520 hc        1 DP2      0.251000
     44 HD'1      228.6720  368.6590   45.9500 hc        1 DP2      0.251000
     45 HD'2      228.7480  369.8180   48.1990 ha        1 DP2      0.213000
     46 HE'1      229.1430  371.3560   47.1540 ha        1 DP2      0.213000
     47 HE'2     1291.8460  768.5480-1181.5700 ha        1 DP2      0.367000
     48 HZ'1      106.6520  221.7500 -152.6050 ha        1 DP2      0.000000
     49 HZ'2     1289.0140  770.1190-1181.6190 hn        1 DP2      0.409000
     50 HN'1      226.9420  371.1950   42.4030 hn        1 DP2      0.276667
     51 H11      -327.1580  -84.1450  332.2910 hn        1 DP2      0.264667
     52 H2          4.8550   79.2980   -9.0140 ha        1 DP2      0.000000
     53 H23     -1171.0420 -248.1400-1212.1730 hn        1 DP2      0.346000
     54 HE3      -329.3060  -86.0590  333.6390 hn        1 DP2      0.218000
     55 HH13     -328.5180  -83.4720  332.9800 hn        1 DP2      0.264667
     56 H'2       228.4380  370.5560   42.0260 hn        1 DP2      0.276667
     57 HZ'3      106.7670  221.7680 -153.2710 ha        1 DP2      0.000000
     58 C'       -329.3100  -92.0020  335.6300 c1        1 DP2      0.452000
     59 HN'2      227.0470  369.7120   41.6390 hn        1 DP2      0.276667
@<TRIPOS>BOND
     1    1    2 1   
     2    1    3 1   
     3    2   24 1   
     4    3   25 1   
     5    4    5 1   
     6    4   26 1   
     7    4   58 1   
     8    5    9 1   
     9    5   28 1   
    10    6    7 1   
    11    6    8 1   
    12    7   29 1   
    13    7   53 1   
    14    9   10 1   
    15    9   32 1   
    16   10   11 1   
    17   10   33 1   
    18   10   34 1   
    19   11   12 1   
    20   11   35 1   
    21   11   36 1   
    22   12   13 1   
    23   12   54 1   
    24   13   14 1   
    25   13   15 1   
    26   14   37 1   
    27   14   51 1   
    28   14   55 1   
    29   15   38 1   
    30   16   17 1   
    31   16   50 1   
    32   16   56 1   
    33   16   59 1   
    34   17   19 1   
    35   17   39 1   
    36   17   40 1   
    37   18   58 1   
    38   19   20 1   
    39   19   41 1   
    40   19   42 1   
    41   20   21 1   
    42   20   43 1   
    43   20   44 1   
    44   21   45 1   
    45   21   46 1   
    46   22   23 1   
    47   22   47 1   
    48   23   49 1   
    49   27   52 1   
    50   30   31 1   
    51   48   57 1   
@<TRIPOS>SUBSTRUCTURE
     1 DP2         1 TEMP              0 ****  ****    0 ROOT
