@<TRIPOS>MOLECULE
DP3
   40    39     1     0     0
SMALL
bcc


@<TRIPOS>ATOM
      1 N2'          0.0000     0.0000     0.0000 nz         1 DP3       0.098400
      2 C2'          1.4690     0.0000     0.0000 c3         1 DP3      -0.052200
      3 C1'          1.9800     0.0000     1.4420 c3         1 DP3       0.142800
      4 N1'          3.4490     0.0000     1.4420 n7         1 DP3      -0.558200
      5 C            3.8710    -0.0010     2.8490 c3         1 DP3       0.124800
      6 CA           5.3990    -0.0010     2.9230 c3         1 DP3      -0.068500
      7 N            5.9260     1.1340     2.1540 nz         1 DP3       0.047400
      8 CB           5.8390     0.1250     4.3830 c3         1 DP3      -0.037400
      9 CG           7.3620    -0.0000     4.4690 c3         1 DP3      -0.044400
     10 CD           7.8010     0.1250     5.9290 c3         1 DP3       0.193800
     11 NE           9.2600     0.0050     6.0120 nu         1 DP3      -0.559200
     12 CZ           9.8870     0.0870     7.2320 c2         1 DP3       0.562100
     13 NH2          9.1870     0.2710     8.3150 n2         1 DP3      -0.739100
     14 NH1         11.2560    -0.0250     7.3100 nu         1 DP3      -0.675500
     15 NO          11.8850    -0.0700     8.5600 no         1 DP3       1.041500
     16 O2          12.9970     0.4080     8.7010 o          1 DP3      -0.395500
     17 O3          11.3210    -0.5880     9.5070 o          1 DP3      -0.395500
     18 H2'1        -0.3340    -0.8160     0.4730 hn         1 DP3       0.232467
     19 H2'2        -0.3340     0.8180     0.4710 hn         1 DP3       0.232467
     20 H11          1.8300     0.8840    -0.5110 hx         1 DP3       0.092700
     21 H12          1.8300    -0.8840    -0.5110 hx         1 DP3       0.092700
     22 H1'1         1.6190    -0.8840     1.9530 h1         1 DP3       0.039200
     23 H1'2         1.6190     0.8840     1.9530 h1         1 DP3       0.039200
     24 H1'          3.7820     0.8300     0.9940 hn         1 DP3       0.236800
     25 H1           3.4850     0.8840     3.3420 h1         1 DP3       0.056700
     26 H2           3.4850    -0.8850     3.3410 h1         1 DP3       0.056700
     27 HA           5.7810    -0.9260     2.5090 hx         1 DP3       0.111700
     28 HN1          6.9090     1.2230     2.3220 hn         1 DP3       0.235133
     29 HN2          5.4620     1.9740     2.4380 hn         1 DP3       0.235133
     30 HB1          5.3790    -0.6620     4.9680 hc         1 DP3       0.060200
     31 HB2          5.5330     1.0890     4.7700 hc         1 DP3       0.060200
     32 HG1          7.6670    -0.9640     4.0810 hc         1 DP3       0.020200
     33 HG2          7.8220     0.7870     3.8840 hc         1 DP3       0.020200
     34 HD1          7.4950     1.0900     6.3170 h1         1 DP3       0.028200
     35 HD2          7.3400    -0.6610     6.5140 h1         1 DP3       0.028200
     36 HNE          9.7970    -0.1530     5.1830 hn         1 DP3       0.292800
     37 HH2          8.1910     0.3530     8.2590 hn         1 DP3       0.334400
     38 HH1         11.8020    -0.0770     6.4720 hn         1 DP3       0.343800
     39 H2'3        -0.3340    -0.0000    -0.9440 hn         1 DP3       0.232467
     40 HN3          5.7730     0.9760     1.1780 hn         1 DP3       0.235133
@<TRIPOS>BOND
     1     1     2 1   
     2     1    18 1   
     3     1    19 1   
     4     1    39 1   
     5     2     3 1   
     6     2    20 1   
     7     2    21 1   
     8     3     4 1   
     9     3    22 1   
    10     3    23 1   
    11     4     5 1   
    12     4    24 1   
    13     5     6 1   
    14     5    25 1   
    15     5    26 1   
    16     6     7 1   
    17     6     8 1   
    18     6    27 1   
    19     7    28 1   
    20     7    29 1   
    21     7    40 1   
    22     8     9 1   
    23     8    30 1   
    24     8    31 1   
    25     9    10 1   
    26     9    32 1   
    27     9    33 1   
    28    10    11 1   
    29    10    34 1   
    30    10    35 1   
    31    11    12 1   
    32    11    36 1   
    33    12    13 2   
    34    12    14 1   
    35    13    37 1   
    36    14    15 1   
    37    14    38 1   
    38    15    16 1   
    39    15    17 1   
@<TRIPOS>SUBSTRUCTURE
     1 DP3         1 TEMP              0 ****  ****    0 ROOT
