@<TRIPOS>MOLECULE
molecule
   40    39     1     0     0
SMALL
bcc


@<TRIPOS>ATOM
      1 N2'          0.0000     0.0000     0.0000 nz         1 DP3      -0.808600
      2 C2'          1.4690     0.0000     0.0000 c3         1 DP3       0.092800
      3 C1'          1.9800     0.0000     1.4420 c3         1 DP3       0.124800
      4 N1'          3.4490     0.0000     1.4420 n7         1 DP3      -0.829200
      5 C            3.8710    -0.0010     2.8490 c3         1 DP3       0.113800
      6 CA           5.3990    -0.0010     2.9230 c3         1 DP3       0.109500
      7 N            5.9260     1.1340     2.1540 nz         1 DP3      -0.811600
      8 CB           5.8390     0.1250     4.3830 c3         1 DP3      -0.107400
      9 CG           7.3620    -0.0000     4.4690 c3         1 DP3      -0.120400
     10 CD           7.8010     0.1250     5.9290 c3         1 DP3       0.276800
     11 NE           9.2600     0.0050     6.0120 nu         1 DP3      -0.900200
     12 CZ           9.8870     0.0870     7.2320 c2         1 DP3       0.844100
     13 NH2          9.1870     0.2710     8.3150 n2         1 DP3      -0.911100
     14 NH1         11.2560    -0.0250     7.3100 nu         1 DP3      -0.877500
     15 NO          11.8850    -0.0700     8.5600 no         1 DP3       0.451500
     16 O2          12.9970     0.4080     8.7010 o          1 DP3      -0.153500
     17 O3          11.3210    -0.5880     9.5070 o          1 DP3      -0.153500
     18 H2'1        -0.3340     0.8170     0.4730 hn         1 DP3       0.469133
     19 H2'2        -0.3340     0.0010    -0.9440 hn         1 DP3       0.469133
     20 H11          1.8300    -0.8840    -0.5110 hx         1 DP3       0.123200
     21 H12          1.8300     0.8840    -0.5110 hx         1 DP3       0.123200
     22 H1'1         1.6190    -0.8840     1.9530 h1         1 DP3       0.071200
     23 H1'2         1.6190     0.8840     1.9530 h1         1 DP3       0.071200
     24 H1'          3.7820    -0.8300     0.9940 hn         1 DP3       0.379800
     25 H1           3.4850    -0.8850     3.3410 h1         1 DP3       0.090700
     26 H2           3.4860     0.8840     3.3420 h1         1 DP3       0.090700
     27 HA           5.7810    -0.9260     2.5090 hx         1 DP3       0.117700
     28 HN1          6.6090     0.8060     1.5010 hn         1 DP3       0.463467
     29 HN2          6.3510     1.7920     2.7780 hn         1 DP3       0.463467
     30 HB1          5.3790    -0.6620     4.9680 hc         1 DP3       0.095700
     31 HB2          5.5330     1.0890     4.7700 hc         1 DP3       0.095700
     32 HG1          7.6670    -0.9640     4.0810 hc         1 DP3       0.047200
     33 HG2          7.8220     0.7870     3.8840 hc         1 DP3       0.047200
     34 HD1          7.4950     1.0900     6.3170 h1         1 DP3       0.069700
     35 HD2          7.3400    -0.6610     6.5140 h1         1 DP3       0.069700
     36 HNE          9.7960    -0.1630     5.1840 hn         1 DP3       0.436800
     37 HH2          9.6440     0.3300     9.2030 hn         1 DP3       0.458400
     38 HH1         11.8030    -0.0590     6.4720 hn         1 DP3       0.473800
     39 H2'3        -0.3340    -0.8180     0.4700 hn         1 DP3       0.469133
     40 HN3          5.1780     1.5780     1.6590 hn         1 DP3       0.463467
@<TRIPOS>BOND
     1     1     2 1
     2     1    18 1
     3     1    19 1
     4     2     3 1
     5     2    20 1
     6     2    21 1
     7     3     4 1
     8     3    22 1
     9     3    23 1
    10     4     5 1
    11     4    24 1
    12     5     6 1
    13     5    25 1
    14     5    26 1
    15     6     7 1
    16     6     8 1
    17     6    27 1
    18     7    28 1
    19     7    29 1
    20     8     9 1
    21     8    30 1
    22     8    31 1
    23     9    10 1
    24     9    32 1
    25     9    33 1
    26    10    11 1
    27    10    34 1
    28    10    35 1
    29    11    12 1
    30    11    36 1
    31    12    13 2
    32    12    14 1
    33    13    37 1
    34    14    15 1
    35    14    38 1
    36    15    16 1
    37    15    17 1
    38    39     1 1
    39    40     7 1
@<TRIPOS>SUBSTRUCTURE
     1 DP3         1 TEMP              0 ****  ****    0 ROOT
