@<TRIPOS>MOLECULE
DP4
   40    41     1     0     0
SMALL
bcc


@<TRIPOS>ATOM
      1 C1           0.0000     0.0000     0.0000 ca         1 DP4      -0.096000
      2 C2           1.3830     0.0000     0.0000 ca         1 DP4      -0.116500
      3 C3           2.0730     0.0000     1.1980 ca         1 DP4      -0.075000
      4 C4           1.3820    -0.0000     2.3950 ca         1 DP4      -0.030200
      5 C5          -0.0010     0.0010     2.3940 ca         1 DP4      -0.075000
      6 C6          -0.6910    -0.0010     1.1970 ca         1 DP4      -0.116500
      7 C7           2.7910    -1.7490     4.4540 c3         1 DP4       0.003900
      8 C8           3.8530     1.0360     3.8430 c3         1 DP4       0.003900
      9 Si           2.3160    -0.0020     4.0130 Si         1 DP4      -0.174800
     10 C9           1.2340     0.7050     5.3540 c3         1 DP4      -0.057700
     11 C10          2.0840     1.0040     6.5930 c3         1 DP4      -0.009400
     12 C11          1.1760     1.5090     7.7170 c3         1 DP4      -0.002200
     13 C12         -0.6870     0.2450     6.8810 c3         1 DP4      -0.002200
     14 C13          0.1480    -0.3090     5.7250 c3         1 DP4      -0.009400
     15 N1           0.1780     0.4840     8.0430 n4         1 DP4       0.360400
     16 O1           0.8560    -0.7590     8.4080 o          1 DP4      -0.776000
     17 C14         -0.6410     0.9420     9.1740 c3         1 DP4       0.021100
     18 HC1         -0.5420    -0.0010    -0.9380 ha         1 DP4       0.099000
     19 HC2          1.9250     0.0000    -0.9380 ha         1 DP4       0.099000
     20 HC3          3.1560    -0.0000     1.1980 ha         1 DP4       0.105500
     21 HC5         -0.5430     0.0000     3.3320 ha         1 DP4       0.105500
     22 HC6         -1.7740    -0.0010     1.1970 ha         1 DP4       0.099000
     23 HC71         3.5600    -2.0960     3.7760 hc         1 DP4       0.025200
     24 HC72         1.9220    -2.3910     4.3730 hc         1 DP4       0.025200
     25 HC73         3.1660    -1.7750     5.4700 hc         1 DP4       0.025200
     26 HC81         3.5770     2.0510     3.5860 hc         1 DP4       0.025200
     27 HC82         4.4830     0.6240     3.0640 hc         1 DP4       0.025200
     28 HC83         4.3940     1.0360     4.7820 hc         1 DP4       0.025200
     29 HC9          0.7690     1.6190     5.0070 hc         1 DP4       0.038700
     30 H101         2.8170     1.7640     6.3520 hc         1 DP4       0.047200
     31 H102         2.5850     0.0990     6.9130 hc         1 DP4       0.047200
     32 H111         0.6730     2.4120     7.3940 hx         1 DP4       0.037950
     33 H112         1.7750     1.7190     8.5950 hx         1 DP4       0.037950
     34 H121        -1.1470     1.1770     6.5770 hx         1 DP4       0.037950
     35 H122        -1.4550    -0.4720     7.1460 hx         1 DP4       0.037950
     36 H131         0.6120    -1.2400     6.0290 hc         1 DP4       0.047200
     37 H132        -0.4920    -0.4810     4.8680 hc         1 DP4       0.047200
     38 H141        -1.3760     0.1840     9.4170 hx         1 DP4       0.037700
     39 H142        -1.1450     1.8620     8.9060 hx         1 DP4       0.037700
     40 H143        -0.0040     1.1160    10.0330 hx         1 DP4       0.037700
@<TRIPOS>BOND
     1     1     2 ar  
     2     1     6 ar  
     3     1    18 1   
     4     2     3 ar  
     5     2    19 1   
     6     3     4 ar  
     7     3    20 1   
     8     4     5 ar  
     9     4     9 1   
    10     5     6 ar  
    11     5    21 1   
    12     6    22 1   
    13     7     9 1   
    14     7    23 1   
    15     7    24 1   
    16     7    25 1   
    17     8     9 1   
    18     8    26 1   
    19     8    27 1   
    20     8    28 1   
    21     9    10 1   
    22    10    11 1   
    23    10    14 1   
    24    10    29 1   
    25    11    12 1   
    26    11    30 1   
    27    11    31 1   
    28    12    15 1   
    29    12    32 1   
    30    12    33 1   
    31    13    14 1   
    32    13    15 1   
    33    13    34 1   
    34    13    35 1   
    35    14    36 1   
    36    14    37 1   
    37    15    16 1   
    38    15    17 1   
    39    17    38 1   
    40    17    39 1   
    41    17    40 1   
@<TRIPOS>SUBSTRUCTURE
     1 DP4         1 TEMP              0 ****  ****    0 ROOT
