@<TRIPOS>MOLECULE
molecule
   28    27     1     0     0
SMALL
bcc


@<TRIPOS>ATOM
      1 C3A          1.5350     0.0000     0.0000 c3         1 DP6      -0.129100
      2 O1A         -1.1510     4.5250    -4.4170 o          1 DP6      -0.891000
      3 O2A          1.1820     3.3640    -4.1290 o          1 DP6      -0.891000
      4 O3A         -0.4130     0.0000     1.3730 oh         1 DP6      -0.602800
      5 O1B         -2.8450     0.6610    -4.1230 o          1 DP6      -0.932833
      6 O2B         -1.7680     0.2040    -6.4810 o          1 DP6      -0.932833
      7 O3B         -3.0200     2.3810    -6.1090 o          1 DP6      -0.932833
      8 PB          -2.1680     1.2560    -5.3220 p5         1 DP6       1.222900
      9 O6          -0.7700     2.0010    -5.0050 os         1 DP6      -0.680800
     10 PA          -0.4310     3.2600    -4.0480 p5         1 DP6       1.415800
     11 O5          -0.7290     2.7280    -2.5520 os         1 DP6      -0.594200
     12 C5          -0.1040     1.5390    -2.0870 c3         1 DP6       0.222400
     13 C4          -0.5620     1.2770    -0.6570 c3         1 DP6      -0.094400
     14 C3           0.0000     0.0000     0.0000 c3         1 DP6       0.174800
     15 C2          -0.5060    -1.3050    -0.6370 c3         1 DP6      -0.156400
     16 C1          -2.0140    -1.4140    -0.6910 c          1 DP6       0.865600
     17 O1          -2.7320    -1.4530     0.2980 o          1 DP6      -0.823300
     18 O2          -2.4900    -1.4660    -1.9600 o          1 DP6      -0.823300
     19 H3A1         1.8960     0.9900     0.2500 hc         1 DP6       0.014700
     20 H3A2         1.8960    -0.2790    -0.9820 hc         1 DP6       0.014700
     21 H3A3         1.8960    -0.7110     0.7330 hc         1 DP6       0.014700
     22 HO3A         0.1240     0.6010     1.8630 ho         1 DP6       0.338000
     23 H51         -0.3890     0.7060    -2.7190 h1         1 DP6       0.036200
     24 H52          0.9720     1.6610    -2.1080 h1         1 DP6       0.036200
     25 H41         -0.2730     2.1260    -0.0490 hc         1 DP6       0.043700
     26 H42         -1.6430     1.2100    -0.6560 hc         1 DP6       0.043700
     27 H21         -0.1190    -1.3680    -1.6470 hc         1 DP6       0.021200
     28 H22         -0.1200    -2.1400    -0.0660 hc         1 DP6       0.021200
@<TRIPOS>BOND
     1     1    14 1
     2     1    19 1
     3     1    20 1
     4     1    21 1
     5     2    10 1
     6     3    10 1
     7     4    14 1
     8     4    22 1
     9     5     8 1
    10     6     8 1
    11     7     8 1
    12     8     9 1
    13     9    10 1
    14    10    11 1
    15    11    12 1
    16    12    13 1
    17    12    23 1
    18    12    24 1
    19    13    14 1
    20    13    25 1
    21    13    26 1
    22    14    15 1
    23    15    16 1
    24    15    27 1
    25    15    28 1
    26    16    17 1
    27    16    18 1
@<TRIPOS>SUBSTRUCTURE
     1 DP6         1 TEMP              0 ****  ****    0 ROOT
