@<TRIPOS>MOLECULE
DP6
   28    27     1     0     0
SMALL
bcc


@<TRIPOS>ATOM
      1 C3A         1.0690    0.1300    0.1120 c3        1 DP6     -0.111100
      2 O1A        -0.1110    3.7470   -3.3050 o         1 DP6     -0.932500
      3 O2A         1.1300    1.8940   -4.5080 o         1 DP6     -0.932500
      4 O3A        -0.9180    0.7420    1.3220 oh        1 DP6     -0.658800
      5 O1B        -3.2190    3.8000   -6.6030 o         1 DP6     -0.969833
      6 O2B        -1.9760    1.9630   -7.8050 o         1 DP6     -0.969833
      7 O3B        -0.9820    4.2810   -7.6720 o         1 DP6     -0.969833
      8 PB         -1.8820    3.2530   -7.0320 p5        1 DP6      1.470900
      9 O6         -1.0400    2.8370   -5.5280 os        1 DP6     -0.811800
     10 PA         -0.1630    2.5960   -4.2530 p5        1 DP6      1.583800
     11 O5         -1.0350    1.4190   -3.3650 os        1 DP6     -0.579200
     12 C5         -0.3250    0.7810   -2.3680 c3        1 DP6      0.238400
     13 C4         -1.0650    0.8840   -1.0260 c3        1 DP6     -0.106400
     14 C3         -0.4540    0.0800    0.1340 c3        1 DP6      0.176800
     15 C2         -0.9290   -1.3780    0.1390 c3        1 DP6     -0.199400
     16 C1         -0.4850   -2.2490    1.3140 c         1 DP6      0.902600
     17 O1         -0.1920   -1.7410    2.4450 o         1 DP6     -0.891300
     18 O2         -0.4600   -3.5110    1.1510 o         1 DP6     -0.891300
     19 H3A1        1.4730   -0.3780    1.0220 hc        1 DP6      0.030367
     20 H3A2        1.4530   -0.3870   -0.7990 hc        1 DP6      0.030367
     21 H3A3        1.4120    1.1920    0.0970 hc        1 DP6      0.030367
     22 HO3A       -0.6530    0.1840    2.0660 ho        1 DP6      0.416000
     23 H51         0.7080    1.2210   -2.2720 h1        1 DP6     -0.009800
     24 H52        -0.2220   -0.3180   -2.6170 h1        1 DP6     -0.009800
     25 H41        -1.0920    1.9650   -0.7280 hc        1 DP6      0.041200
     26 H42        -2.1240    0.5540   -1.1730 hc        1 DP6      0.041200
     27 H21        -0.5890   -1.8590   -0.8130 hc        1 DP6      0.040700
     28 H22        -2.0500   -1.3820    0.1440 hc        1 DP6      0.040700
@<TRIPOS>BOND
     1    1   14 1   
     2    1   19 1   
     3    1   20 1   
     4    1   21 1   
     5    2   10 1   
     6    3   10 1   
     7    4   14 1   
     8    4   22 1   
     9    5    8 1   
    10    6    8 1   
    11    7    8 1   
    12    8    9 1   
    13    9   10 1   
    14   10   11 1   
    15   11   12 1   
    16   12   13 1   
    17   12   23 1   
    18   12   24 1   
    19   13   14 1   
    20   13   25 1   
    21   13   26 1   
    22   14   15 1   
    23   15   16 1   
    24   15   27 1   
    25   15   28 1   
    26   16   17 1   
    27   16   18 1   
@<TRIPOS>SUBSTRUCTURE
     1 DP6         1 TEMP              0 ****  ****    0 ROOT
