@<TRIPOS>MOLECULE
DP8
   38    39     1     0     0
SMALL
bcc


@<TRIPOS>ATOM
      1 C            0.0000     0.0000     0.0000 c3         1 DP8       0.181100
      2 N            1.4690     0.0000     0.0000 n3         1 DP8      -0.535600
      3 O            3.5870     1.7420     0.8510 os         1 DP8      -0.285900
      4 C01         10.5970     6.3930     2.2260 ca         1 DP8      -0.061500
      5 C02          9.6930     6.8060     3.1900 ca         1 DP8      -0.144000
      6 C03          8.4400     6.2250     3.2580 ca         1 DP8      -0.061500
      7 C04          8.0870     5.2320     2.3660 ca         1 DP8      -0.172500
      8 C05          8.9920     4.8170     1.3980 ca         1 DP8       0.143100
      9 C06         10.2490     5.4000     1.3320 ca         1 DP8      -0.172500
     10 C07          7.3930     3.3200     0.6020 ca         1 DP8       0.058100
     11 C08          6.3000     4.0780     0.2070 ca         1 DP8      -0.077500
     12 C09          5.0270     3.5500     0.2910 ca         1 DP8      -0.166000
     13 C10          4.8410     2.2620     0.7680 ca         1 DP8       0.149100
     14 C11          5.9330     1.5030     1.1630 ca         1 DP8      -0.166000
     15 C12          7.2070     2.0300     1.0740 ca         1 DP8      -0.077500
     16 C13          3.4700     0.4090     1.3520 c3         1 DP8       0.199400
     17 C14          1.9950     0.0000     1.3710 c3         1 DP8       0.146800
     18 C15          1.9950    -1.1360    -0.7670 c3         1 DP8       0.181100
     19 H           -0.3610     0.0810    -1.0180 h1         1 DP8       0.001867
     20 HA          -0.3610     0.8410     0.5790 h1         1 DP8       0.001867
     21 HB          -0.3610    -0.9220     0.4390 h1         1 DP8       0.001867
     22 H02          9.9680     7.5840     3.8910 ha         1 DP8       0.104000
     23 H03          7.7340     6.5500     4.0130 ha         1 DP8       0.101000
     24 H04          7.1050     4.7780     2.4200 ha         1 DP8       0.121500
     25 H06         10.9570     5.0780     0.5780 ha         1 DP8       0.121500
     26 H08          6.4460     5.0850    -0.1660 ha         1 DP8       0.115500
     27 H09          4.1740     4.1420    -0.0180 ha         1 DP8       0.121500
     28 H11          5.7880     0.4950     1.5310 ha         1 DP8       0.121500
     29 H12          8.0610     1.4370     1.3820 ha         1 DP8       0.115500
     30 H13          3.8700     0.3640     2.3580 h1         1 DP8       0.003200
     31 H13A         4.0240    -0.2680     0.7120 h1         1 DP8       0.003200
     32 H14          1.9010    -0.9930     1.7940 h1         1 DP8       0.018200
     33 H14A         1.4330     0.7040     1.9740 h1         1 DP8       0.018200
     34 H15          2.2130    -1.9570    -0.0930 h1         1 DP8       0.001867
     35 H15A         1.2580    -1.4530    -1.4950 h1         1 DP8       0.001867
     36 H15B         2.9030    -0.8380    -1.2780 h1         1 DP8       0.001867
     37 O01          8.6470     3.8400     0.5190 os         1 DP8      -0.216200
     38 H01         11.5780     6.8490     2.1740 ha         1 DP8       0.101000
@<TRIPOS>BOND
     1     1     2 1   
     2     1    19 1   
     3     1    20 1   
     4     1    21 1   
     5     2    17 1   
     6     2    18 1   
     7     3    13 1   
     8     3    16 1   
     9     4     5 ar  
    10     4     9 ar  
    11     4    38 1   
    12     5     6 ar  
    13     5    22 1   
    14     6     7 ar  
    15     6    23 1   
    16     7     8 ar  
    17     7    24 1   
    18     8     9 ar  
    19     8    37 1   
    20     9    25 1   
    21    10    11 ar  
    22    10    15 ar  
    23    10    37 1   
    24    11    12 ar  
    25    11    26 1   
    26    12    13 ar  
    27    12    27 1   
    28    13    14 ar  
    29    14    15 ar  
    30    14    28 1   
    31    15    29 1   
    32    16    17 1   
    33    16    30 1   
    34    16    31 1   
    35    17    32 1   
    36    17    33 1   
    37    18    34 1   
    38    18    35 1   
    39    18    36 1   
@<TRIPOS>SUBSTRUCTURE
     1 DP8         1 TEMP              0 ****  ****    0 ROOT
