@<TRIPOS>MOLECULE
molecule
   38    39     1     0     0
SMALL
bcc


@<TRIPOS>ATOM
      1 C            0.0000     0.0000     0.0000 c3         1 DP8       0.149600
      2 N            1.4690     0.0000     0.0000 n3         1 DP8      -0.720600
      3 O            3.5870     1.7420     0.8510 os         1 DP8      -0.307900
      4 C01         10.5970     6.3930     2.2260 ca         1 DP8      -0.094500
      5 C02          9.6930     6.8060     3.1900 ca         1 DP8      -0.165000
      6 C03          8.4400     6.2250     3.2580 ca         1 DP8      -0.094500
      7 C04          8.0870     5.2320     2.3660 ca         1 DP8      -0.183000
      8 C05          8.9920     4.8170     1.3980 ca         1 DP8       0.136100
      9 C06         10.2490     5.4000     1.3320 ca         1 DP8      -0.183000
     10 C07          7.3930     3.3200     0.6020 ca         1 DP8       0.057100
     11 C08          6.3000     4.0780     0.2070 ca         1 DP8      -0.102000
     12 C09          5.0270     3.5500     0.2910 ca         1 DP8      -0.184000
     13 C10          4.8410     2.2620     0.7680 ca         1 DP8       0.144100
     14 C11          5.9330     1.5030     1.1630 ca         1 DP8      -0.184000
     15 C12          7.2070     2.0300     1.0740 ca         1 DP8      -0.102000
     16 C13          3.4700     0.4090     1.3520 c3         1 DP8       0.141400
     17 C14          1.9950     0.0000     1.3710 c3         1 DP8       0.162800
     18 C15          1.9950    -1.1360    -0.7670 c3         1 DP8       0.149600
     19 H           -0.3610     0.0810    -1.0180 h1         1 DP8       0.033033
     20 HA          -0.3610     0.8410     0.5790 h1         1 DP8       0.033033
     21 HB          -0.3610    -0.9220     0.4390 h1         1 DP8       0.033033
     22 H02          9.9680     7.5840     3.8910 ha         1 DP8       0.130000
     23 H03          7.7340     6.5500     4.0130 ha         1 DP8       0.131500
     24 H04          7.1050     4.7780     2.4200 ha         1 DP8       0.143500
     25 H06         10.9570     5.0780     0.5780 ha         1 DP8       0.143500
     26 H08          6.4460     5.0850    -0.1660 ha         1 DP8       0.146500
     27 H09          4.1740     4.1420    -0.0180 ha         1 DP8       0.145000
     28 H11          5.7880     0.4950     1.5310 ha         1 DP8       0.145000
     29 H12          8.0610     1.4370     1.3820 ha         1 DP8       0.146500
     30 H13          3.8700     0.3640     2.3580 h1         1 DP8       0.036200
     31 H13A         4.0240    -0.2680     0.7120 h1         1 DP8       0.036200
     32 H14          1.9010    -0.9930     1.7940 h1         1 DP8       0.046700
     33 H14A         1.4330     0.7040     1.9740 h1         1 DP8       0.046700
     34 H15          2.2130    -1.9570    -0.0930 h1         1 DP8       0.033033
     35 H15A         1.2580    -1.4530    -1.4950 h1         1 DP8       0.033033
     36 H15B         2.9030    -0.8380    -1.2780 h1         1 DP8       0.033033
     37 O01          8.6470     3.8400     0.5190 os         1 DP8      -0.245200
     38 H01         11.5780     6.8490     2.1740 ha         1 DP8       0.131500
@<TRIPOS>BOND
     1     1     2 1
     2     2    17 1
     3     2    18 1
     4     3    13 1
     5     3    16 1
     6     4     5 ar
     7     4     9 ar
     8    37     8 1
     9    37    10 1
    10     5     6 ar
    11     6     7 ar
    12     7     8 ar
    13     8     9 ar
    14    10    11 ar
    15    10    15 ar
    16    11    12 ar
    17    12    13 ar
    18    13    14 ar
    19    14    15 ar
    20    16    17 1
    21     1    19 1
    22     1    20 1
    23     1    21 1
    24     4    38 1
    25     5    22 1
    26     6    23 1
    27     7    24 1
    28     9    25 1
    29    11    26 1
    30    12    27 1
    31    14    28 1
    32    15    29 1
    33    16    30 1
    34    16    31 1
    35    17    32 1
    36    17    33 1
    37    18    34 1
    38    18    35 1
    39    18    36 1
@<TRIPOS>SUBSTRUCTURE
     1 DP8         1 TEMP              0 ****  ****    0 ROOT
