@<TRIPOS>MOLECULE
molecule
   47    47     1     0     0
SMALL
bcc


@<TRIPOS>ATOM
      1 NH2          0.0000     0.0000     0.0000 n2         1 DP9      -0.874100
      2 CZ           1.3040     0.0000     0.0000 c2         1 DP9       0.845100
      3 NH1          1.9910     0.0000     1.1900 nu         1 DP9      -0.836500
      4 NO           1.2960    -0.1280     2.4010 no         1 DP9       0.461500
      5 O2           0.2780    -0.7950     2.4500 o          1 DP9      -0.136000
      6 O3           1.7110     0.4280     3.4020 o          1 DP9      -0.136000
      7 NE           1.9910    -0.0010    -1.1910 nu         1 DP9      -0.949200
      8 CD           1.2590    -0.0020    -2.4600 c3         1 DP9       0.256800
      9 CG           2.2520    -0.0030    -3.6230 c3         1 DP9      -0.113400
     10 CB           1.4870    -0.0030    -4.9470 c3         1 DP9      -0.104400
     11 CA           2.4820    -0.0040    -6.1100 c3         1 DP9       0.028500
     12 N            3.2450     1.2510    -6.1020 nz         1 DP9      -0.806600
     13 C            1.7320    -0.1280    -7.4120 c          1 DP9       0.646100
     14 O            1.5200     0.8580    -8.0860 o          1 DP9      -0.566100
     15 N2'          1.2970    -1.3340    -7.8270 ns         1 DP9      -0.559900
     16 CG'          0.5680    -1.4550    -9.0920 c3         1 DP9       0.117700
     17 CD'          1.5560    -1.6540   -10.2620 c3         1 DP9       0.128800
     18 N'           0.8720    -2.6120   -11.1690 n7         1 DP9      -0.745200
     19 CA'          0.2230    -3.5840   -10.2530 c3         1 DP9       0.064500
     20 C'          -0.9130    -4.2870   -10.9510 c          1 DP9       0.470100
     21 O'          -1.3960    -3.8080   -11.9560 o          1 DP9      -0.333100
     22 N1'         -1.3920    -5.4460   -10.4590 nz         1 DP9      -0.683400
     23 CB'         -0.3100    -2.7230    -9.0850 c3         1 DP9      -0.096400
     24 HH2         -0.5010    -0.0000    -0.8670 hn         1 DP9       0.406400
     25 HH1          2.9880     0.0880     1.1920 hn         1 DP9       0.482800
     26 HNE          2.9920    -0.0030    -1.1910 hn         1 DP9       0.427800
     27 HD1          0.6360    -0.8870    -2.5160 h1         1 DP9       0.056700
     28 HD2          0.6350     0.8820    -2.5180 h1         1 DP9       0.056700
     29 HG1          2.8750     0.8820    -3.5660 hc         1 DP9       0.052700
     30 HG2          2.8750    -0.8870    -3.5650 hc         1 DP9       0.052700
     31 HB1          0.8640    -0.8870    -5.0040 hc         1 DP9       0.095200
     32 HB2          0.8650     0.8820    -5.0050 hc         1 DP9       0.095200
     33 HA           3.1620    -0.8410    -6.0040 hx         1 DP9       0.120700
     34 HN1          4.2180     1.0490    -5.9790 hn         1 DP9       0.471800
     35 HN2          2.9270     1.8300    -5.3510 hn         1 DP9       0.471800
     36 H2'          1.4910    -2.1510    -7.2810 hn         1 DP9       0.327500
     37 HG'         -0.0430    -0.5780    -9.2650 h1         1 DP9       0.127700
     38 HD'1         1.7320    -0.7140   -10.7710 h1         1 DP9       0.079200
     39 HD'2         2.4860    -2.0770    -9.9020 h1         1 DP9       0.079200
     40 HN'          1.5530    -3.0850   -11.7300 hn         1 DP9       0.389800
     41 HA'          0.9500    -4.3000    -9.8900 h1         1 DP9       0.057700
     42 H1'1        -1.8690    -5.9450   -11.1850 hn         1 DP9       0.482133
     43 H1'2        -2.0300    -5.2540    -9.7130 hn         1 DP9       0.482133
     44 HB'1        -0.1970    -3.2520    -8.1460 hc         1 DP9       0.075700
     45 HB'2        -1.3470    -2.4610    -9.2540 hc         1 DP9       0.075700
     46 HN3          3.0960     1.7380    -6.9640 hn         1 DP9       0.471800
     47 H1'3        -0.6350    -6.0000   -10.1110 hn         1 DP9       0.482133
@<TRIPOS>BOND
     1     1     2 2
     2     1    24 1
     3     2     3 1
     4     2     7 1
     5     3     4 1
     6     3    25 1
     7     4     5 1
     8     4     6 1
     9     7     8 1
    10     7    26 1
    11     8     9 1
    12     8    27 1
    13     8    28 1
    14     9    10 1
    15     9    29 1
    16     9    30 1
    17    10    11 1
    18    10    31 1
    19    10    32 1
    20    11    12 1
    21    11    13 1
    22    11    33 1
    23    12    34 1
    24    12    35 1
    25    13    14 2
    26    13    15 1
    27    15    16 1
    28    15    36 1
    29    16    17 1
    30    16    23 1
    31    16    37 1
    32    17    18 1
    33    17    38 1
    34    17    39 1
    35    18    19 1
    36    18    40 1
    37    19    20 1
    38    19    23 1
    39    19    41 1
    40    20    21 2
    41    20    22 1
    42    22    42 1
    43    22    43 1
    44    23    44 1
    45    23    45 1
    46    46    12 1
    47    47    22 1
@<TRIPOS>SUBSTRUCTURE
     1 DP9         1 TEMP              0 ****  ****    0 ROOT
