@<TRIPOS>MOLECULE
molecule
   34    34     1     0     0
SMALL
bcc


@<TRIPOS>ATOM
      1 C1           0.0000     0.0000     0.0000 c          1 DPA       0.585500
      2 C2           1.4640     0.0000     0.0000 ca         1 DPA      -0.242600
      3 C3           2.1690     0.0000     1.2120 ca         1 DPA      -0.118000
      4 C4           3.5460    -0.0010     1.2060 ca         1 DPA       0.061100
      5 C5           4.2430    -0.0070    -0.0050 ca         1 DPA       0.151100
      6 C6           3.5560    -0.0130    -1.2080 ca         1 DPA      -0.232000
      7 C7           2.1700    -0.0130    -1.2170 ca         1 DPA       0.110600
      8 C8           2.0640     0.4640    -3.5380 c          1 DPA       0.677300
      9 C9           1.3850     0.3420    -4.8400 ce         1 DPA       0.026900
     10 C10          0.1920    -0.2480    -4.9170 c2         1 DPA      -0.317000
     11 C11          3.2570     0.0120     3.4260 c3         1 DPA       0.100700
     12 C12          6.0160    -0.0150    -1.3710 c3         1 DPA       0.095700
     13 C13          1.0830     0.5630    -7.0480 c3         1 DPA       0.100700
     14 N7           1.4800    -0.0190    -2.4240 ns         1 DPA      -0.467100
     15 O1          -0.6070     0.0020     1.0510 o          1 DPA      -0.530100
     16 O4           4.2300     0.0060     2.3810 os         1 DPA      -0.280900
     17 O5           5.6010    -0.0070    -0.0030 os         1 DPA      -0.274900
     18 O8           3.1520     1.0030    -3.4680 o          1 DPA      -0.564100
     19 O9           1.9760     0.8300    -5.9630 os         1 DPA      -0.263900
     20 H1          -0.5420     0.0310    -0.9380 h4         1 DPA      -0.016800
     21 H3           1.6310     0.0050     2.1520 ha         1 DPA       0.172000
     22 H6           4.1020    -0.0210    -2.1430 ha         1 DPA       0.193000
     23 H101        -0.3070    -0.3390    -5.8740 ha         1 DPA       0.132000
     24 H102        -0.2780    -0.6380    -4.0220 ha         1 DPA       0.132000
     25 H111         2.6370    -0.8730     3.3470 h1         1 DPA       0.045700
     26 H112         2.6370     0.8960     3.3370 h1         1 DPA       0.045700
     27 H113         3.7570     0.0170     4.3860 h1         1 DPA       0.045700
     28 H121         7.0980    -0.0350    -1.4200 h1         1 DPA       0.051700
     29 H122         5.6160    -0.8920    -1.8650 h1         1 DPA       0.051700
     30 H123         5.6490     0.8760    -1.8650 h1         1 DPA       0.051700
     31 H131         0.9250    -0.5050    -7.1310 h1         1 DPA       0.048700
     32 H132         1.5140     0.9370    -7.9700 h1         1 DPA       0.048700
     33 H133         0.1360     1.0560    -6.8660 h1         1 DPA       0.048700
     34 HN7          0.5570    -0.4020    -2.4700 hn         1 DPA       0.332500
@<TRIPOS>BOND
     1     1     2 1
     2     1    15 2
     3     1    20 1
     4     2     3 ar
     5     2     7 ar
     6     3     4 ar
     7     3    21 1
     8     4     5 ar
     9     4    16 1
    10     5     6 ar
    11     5    17 1
    12     6     7 ar
    13     6    22 1
    14     7    14 1
    15     8     9 1
    16     8    14 1
    17     8    18 2
    18     9    10 2
    19     9    19 1
    20    10    23 1
    21    10    24 1
    22    11    16 1
    23    11    25 1
    24    11    26 1
    25    11    27 1
    26    12    17 1
    27    12    28 1
    28    12    29 1
    29    12    30 1
    30    13    19 1
    31    13    31 1
    32    13    32 1
    33    13    33 1
    34    14    34 1
@<TRIPOS>SUBSTRUCTURE
     1 DPA         1 TEMP              0 ****  ****    0 ROOT
