@<TRIPOS>MOLECULE
molecule
   55    56     1     0     0
SMALL
bcc


@<TRIPOS>ATOM
      1 C1           0.0000     0.0000     0.0000 c          1 DPC       0.864800
      2 O1A          1.3480     0.0000     0.0000 o          1 DPC      -0.769800
      3 O1B         -0.6070     0.0000     1.0520 o          1 DPC      -0.769800
      4 C2          -0.7370     0.0010    -1.2750 ce         1 DPC       0.145900
      5 C3          -2.0540     0.0010    -1.2010 c2         1 DPC      -0.432200
      6 C4          -2.9290     0.0190    -2.4270 c3         1 DPC       0.148700
      7 C5          -2.0460    -0.2640    -3.6500 c3         1 DPC       0.069700
      8 N5          -2.7390     0.1510    -4.8720 ns         1 DPC      -0.591900
      9 C10         -3.5710    -0.7030    -5.5000 c          1 DPC       0.666100
     10 O10         -3.7970    -1.7930    -5.0170 o          1 DPC      -0.650100
     11 C11         -4.2210    -0.3060    -6.8000 c3         1 DPC      -0.169100
     12 C6          -0.7530     0.5420    -3.4800 c3         1 DPC       0.042100
     13 O6          -0.0010     0.0010    -2.4010 os         1 DPC      -0.211900
     14 C7           0.0580     0.4670    -4.7460 c          1 DPC       0.671100
     15 O7           0.3360    -0.6120    -5.2250 o          1 DPC      -0.571100
     16 N8           0.4760     1.5980    -5.3480 n          1 DPC      -0.488800
     17 C81          1.0960     1.5370    -6.6740 c3         1 DPC       0.116000
     18 C82          2.6070     1.3620    -6.5240 c3         1 DPC      -0.056100
     19 CG           3.2430     1.3000    -7.8890 ca         1 DPC      -0.088300
     20 CD1          3.6720     2.4600    -8.5050 ca         1 DPC      -0.123500
     21 CD2          3.4040     0.0810    -8.5220 ca         1 DPC      -0.123500
     22 CE1          4.2560     2.4020    -9.7570 ca         1 DPC      -0.127000
     23 CE2          3.9840     0.0250    -9.7750 ca         1 DPC      -0.127000
     24 CZ           4.4120     1.1850   -10.3910 ca         1 DPC      -0.129000
     25 C9           0.3120     2.8890    -4.6750 c3         1 DPC       0.091000
     26 C91         -1.1110     3.4050    -4.9010 c3         1 DPC      -0.113400
     27 C92         -1.2330     4.8250    -4.3470 c3         1 DPC      -0.093100
     28 NE          -3.9670    -1.0150    -2.3110 nz         1 DPC      -0.796600
     29 H3          -2.5230    -0.0120    -0.2240 ha         1 DPC       0.190000
     30 H4          -3.3900     0.9940    -2.5290 hx         1 DPC       0.091700
     31 H5          -1.8140    -1.3210    -3.6950 h1         1 DPC       0.123700
     32 HN5         -2.6090     1.0760    -5.2310 hn         1 DPC       0.333500
     33 H111        -4.5860     0.7110    -6.7250 hc         1 DPC       0.072033
     34 H112        -3.4940    -0.3710    -7.6000 hc         1 DPC       0.072033
     35 H113        -5.0480    -0.9730    -7.0080 hc         1 DPC       0.072033
     36 H6          -0.9990     1.5750    -3.2640 h1         1 DPC       0.068700
     37 H811         0.8900     2.4550    -7.2110 h1         1 DPC       0.058200
     38 H812         0.6880     0.6980    -7.2250 h1         1 DPC       0.058200
     39 H821         3.0150     2.2020    -5.9730 hc         1 DPC       0.066700
     40 H822         2.8130     0.4440    -5.9870 hc         1 DPC       0.066700
     41 HD1          3.5500     3.4140    -8.0080 ha         1 DPC       0.133500
     42 HD2          3.0690    -0.8290    -8.0380 ha         1 DPC       0.133500
     43 HE1          4.5920     3.3120   -10.2410 ha         1 DPC       0.130000
     44 HE2          4.1090    -0.9300   -10.2710 ha         1 DPC       0.130000
     45 HZ           4.8680     1.1400   -11.3730 ha         1 DPC       0.129000
     46 H91          0.4880     2.7680    -3.6130 h1         1 DPC       0.071200
     47 H92          1.0220     3.6000    -5.0800 h1         1 DPC       0.071200
     48 H911        -1.3280     3.4110    -5.9620 hc         1 DPC       0.032700
     49 H912        -1.8140     2.7570    -4.3920 hc         1 DPC       0.032700
     50 H921        -0.9380     4.8330    -3.3050 hc         1 DPC       0.043033
     51 H922        -2.2600     5.1590    -4.4350 hc         1 DPC       0.043033
     52 H923        -0.5890     5.4890    -4.9100 hc         1 DPC       0.043033
     53 HNE1        -4.3660    -0.9860    -1.3940 hn         1 DPC       0.449800
     54 HNE2        -3.5600    -1.9150    -2.4700 hn         1 DPC       0.449800
     55 HE3         -4.6820    -0.8470    -2.9910 hn         1 DPC       0.449800
@<TRIPOS>BOND
     1     1     2 1
     2     1     3 1
     3     1     4 1
     4     4     5 2
     5     4    13 1
     6     5     6 1
     7     5    29 1
     8     6     7 1
     9     6    28 1
    10     6    30 1
    11     7     8 1
    12     7    12 1
    13     7    31 1
    14     8     9 1
    15     8    32 1
    16     9    10 2
    17     9    11 1
    18    11    33 1
    19    11    34 1
    20    11    35 1
    21    12    13 1
    22    12    14 1
    23    12    36 1
    24    14    15 2
    25    14    16 1
    26    16    17 1
    27    16    25 1
    28    17    18 1
    29    17    37 1
    30    17    38 1
    31    18    19 1
    32    18    39 1
    33    18    40 1
    34    19    20 ar
    35    19    21 ar
    36    20    22 ar
    37    20    41 1
    38    21    23 ar
    39    21    42 1
    40    22    24 ar
    41    22    43 1
    42    23    24 ar
    43    23    44 1
    44    24    45 1
    45    25    26 1
    46    25    46 1
    47    25    47 1
    48    26    27 1
    49    26    48 1
    50    26    49 1
    51    27    50 1
    52    27    51 1
    53    27    52 1
    54    28    53 1
    55    28    54 1
    56    55    28 1
@<TRIPOS>SUBSTRUCTURE
     1 DPC         1 TEMP              0 ****  ****    0 ROOT
