@<TRIPOS>MOLECULE
molecule
   86    88     1     0     0
SMALL
bcc


@<TRIPOS>ATOM
      1 C11          0.0000     0.0000     0.0000 ca         1 DPD      -0.074300
      2 C12          1.3820     0.0000     0.0000 ca         1 DPD      -0.122750
      3 C13          2.0730     0.0000     1.1970 ca         1 DPD      -0.125750
      4 C14          1.3830    -0.0010     2.3940 ca         1 DPD      -0.130500
      5 C15          0.0010    -0.0000     2.3950 ca         1 DPD      -0.125750
      6 C16         -0.6900     0.0040     1.1980 ca         1 DPD      -0.122750
      7 C21         -0.5430     1.3150    -2.0060 ca         1 DPD      -0.074300
      8 C22         -1.5970     2.1980    -2.1520 ca         1 DPD      -0.122750
      9 C23         -1.4030     3.4060    -2.7970 ca         1 DPD      -0.125750
     10 C24         -0.1540     3.7310    -3.2940 ca         1 DPD      -0.130500
     11 C25          0.9000     2.8480    -3.1470 ca         1 DPD      -0.125750
     12 C26          0.7060     1.6430    -2.4990 ca         1 DPD      -0.122750
     13 C1          -0.7540     0.0000    -1.3040 c3         1 DPD       0.020900
     14 C2          -0.2430    -1.1380    -2.1890 c3         1 DPD      -0.073400
     15 C3          -1.0080    -1.1380    -3.5140 c3         1 DPD       0.142800
     16 N4          -0.5170    -2.2300    -4.3640 n7         1 DPD      -0.800200
     17 C5          -1.2880    -2.1750    -5.6120 c3         1 DPD       0.145800
     18 C6          -0.8260    -3.2910    -6.5500 c3         1 DPD      -0.085400
     19 C7          -1.6310    -3.2330    -7.8480 c3         1 DPD       0.144800
     20 N8          -1.1860    -4.3050    -8.7490 n7         1 DPD      -0.799200
     21 C9          -1.9920    -4.1930    -9.9700 c3         1 DPD       0.202800
     22 C19         -3.2580    -5.0400    -9.8250 c3         1 DPD      -0.083100
     23 C31         -1.1910    -4.6860   -11.1480 ca         1 DPD      -0.096300
     24 C32         -1.4140    -4.1530   -12.4040 ca         1 DPD      -0.190000
     25 C33         -0.6750    -4.6000   -13.4880 ca         1 DPD       0.097100
     26 C34          0.2820    -5.5930   -13.3100 ca         1 DPD       0.097100
     27 C35          0.5010    -6.1220   -12.0480 ca         1 DPD      -0.195000
     28 C36         -0.2360    -5.6680   -10.9710 ca         1 DPD      -0.118000
     29 O3          -0.8940    -4.0780   -14.7240 os         1 DPD      -0.282900
     30 C41         -1.9310    -3.1040   -14.5840 c3         1 DPD       0.113400
     31 C42         -2.2270    -2.4750   -15.9470 c3         1 DPD      -0.085400
     32 C43         -3.3370    -1.4320   -15.7960 c3         1 DPD      -0.083400
     33 C44         -3.6320    -0.8020   -17.1590 c3         1 DPD      -0.090100
     34 O4           1.0060    -6.0390   -14.3710 os         1 DPD      -0.283900
     35 C51          1.8970    -7.0390   -13.8720 c3         1 DPD       0.112400
     36 C52          2.7460    -7.5860   -15.0210 c3         1 DPD      -0.085400
     37 C53          3.7000    -8.6560   -14.4860 c3         1 DPD      -0.083400
     38 C54          4.5490    -9.2020   -15.6360 c3         1 DPD      -0.090100
     39 H12          1.9230    -0.0020    -0.9380 ha         1 DPD       0.131000
     40 H13          3.1570    -0.0000     1.1970 ha         1 DPD       0.129250
     41 H14          1.9250    -0.0020     3.3320 ha         1 DPD       0.128000
     42 H15         -0.5400     0.0010     3.3340 ha         1 DPD       0.129250
     43 H16         -1.7740     0.0050     1.1990 ha         1 DPD       0.131000
     44 H22         -2.5760     1.9420    -1.7640 ha         1 DPD       0.131000
     45 H23         -2.2290     4.0980    -2.9120 ha         1 DPD       0.129250
     46 H24         -0.0020     4.6760    -3.8000 ha         1 DPD       0.128000
     47 H25          1.8780     3.1040    -3.5340 ha         1 DPD       0.129250
     48 H26          1.5320     0.9510    -2.3830 ha         1 DPD       0.131000
     49 H1          -1.8110    -0.1400    -1.1110 hc         1 DPD       0.059700
     50 H22A        -0.3950    -2.0840    -1.6840 hc         1 DPD       0.053200
     51 H21          0.8140    -0.9980    -2.3830 hc         1 DPD       0.053200
     52 H32A        -2.0650    -1.2790    -3.3200 h1         1 DPD       0.037700
     53 H31         -0.8570    -0.1920    -4.0180 h1         1 DPD       0.037700
     54 H4          -0.6800    -3.1060    -3.9090 hn         1 DPD       0.349800
     55 H52         -1.1330    -1.2150    -6.0900 h1         1 DPD       0.032700
     56 H51         -2.3410    -2.3020    -5.3910 h1         1 DPD       0.032700
     57 H62         -0.9810    -4.2510    -6.0720 hc         1 DPD       0.054700
     58 H61          0.2260    -3.1640    -6.7710 hc         1 DPD       0.054700
     59 H72         -2.6830    -3.3600    -7.6270 h1         1 DPD       0.033700
     60 H71         -1.4760    -2.2730    -8.3260 h1         1 DPD       0.033700
     61 H8          -0.2200    -4.1730    -8.9730 hn         1 DPD       0.357800
     62 H9          -2.2670    -3.1570   -10.1280 h1         1 DPD       0.032700
     63 H193        -3.2890    -5.7820   -10.6140 hc         1 DPD       0.042700
     64 H192        -3.2520    -5.5370    -8.8630 hc         1 DPD       0.042700
     65 H191        -4.1300    -4.4010    -9.8960 hc         1 DPD       0.042700
     66 H32         -2.1600    -3.3790   -12.5400 ha         1 DPD       0.146000
     67 H35          1.2480    -6.8940   -11.9060 ha         1 DPD       0.147000
     68 H36         -0.0640    -6.0820    -9.9850 ha         1 DPD       0.149000
     69 H412        -2.8260    -3.5820   -14.2040 h1         1 DPD       0.039200
     70 H411        -1.6120    -2.3340   -13.8920 h1         1 DPD       0.039200
     71 H422        -2.5460    -3.2450   -16.6390 hc         1 DPD       0.056700
     72 H421        -1.3320    -1.9970   -16.3260 hc         1 DPD       0.056700
     73 H432        -4.2320    -1.9100   -15.4180 hc         1 DPD       0.040200
     74 H431        -3.0180    -0.6630   -15.1040 hc         1 DPD       0.040200
     75 H443        -3.9500    -1.5720   -17.8520 hc         1 DPD       0.035700
     76 H442        -4.4180    -0.0640   -17.0530 hc         1 DPD       0.035700
     77 H441        -2.7370    -0.3230   -17.5370 hc         1 DPD       0.035700
     78 H512         2.5440    -6.6030   -13.1200 h1         1 DPD       0.039700
     79 H511         1.3240    -7.8460   -13.4310 h1         1 DPD       0.039700
     80 H522         3.3180    -6.7790   -15.4620 hc         1 DPD       0.056700
     81 H521         2.0980    -8.0220   -15.7720 hc         1 DPD       0.056700
     82 H532         4.3470    -8.2200   -13.7350 hc         1 DPD       0.040700
     83 H531         3.1270    -9.4630   -14.0460 hc         1 DPD       0.040700
     84 H543         5.2250    -9.9600   -15.2580 hc         1 DPD       0.035367
     85 H542         3.9020    -9.6380   -16.3880 hc         1 DPD       0.035367
     86 H541         5.1220    -8.3960   -16.0770 hc         1 DPD       0.035367
@<TRIPOS>BOND
     1     1     2 ar
     2     1     6 ar
     3     1    13 1
     4     2     3 ar
     5     2    39 1
     6     3     4 ar
     7     3    40 1
     8     4     5 ar
     9     4    41 1
    10     5     6 ar
    11     5    42 1
    12     6    43 1
    13     7     8 ar
    14     7    12 ar
    15     7    13 1
    16     8     9 ar
    17     8    44 1
    18     9    10 ar
    19     9    45 1
    20    10    11 ar
    21    10    46 1
    22    11    12 ar
    23    11    47 1
    24    12    48 1
    25    13    14 1
    26    13    49 1
    27    14    15 1
    28    14    50 1
    29    14    51 1
    30    15    16 1
    31    15    52 1
    32    15    53 1
    33    16    17 1
    34    16    54 1
    35    17    18 1
    36    17    55 1
    37    17    56 1
    38    18    19 1
    39    18    57 1
    40    18    58 1
    41    19    20 1
    42    19    59 1
    43    19    60 1
    44    20    21 1
    45    20    61 1
    46    21    22 1
    47    21    23 1
    48    21    62 1
    49    22    63 1
    50    22    64 1
    51    22    65 1
    52    23    24 ar
    53    23    28 ar
    54    24    25 ar
    55    24    66 1
    56    25    26 ar
    57    25    29 1
    58    26    27 ar
    59    26    34 1
    60    27    28 ar
    61    27    67 1
    62    28    68 1
    63    29    30 1
    64    30    31 1
    65    30    69 1
    66    30    70 1
    67    31    32 1
    68    31    71 1
    69    31    72 1
    70    32    33 1
    71    32    73 1
    72    32    74 1
    73    33    75 1
    74    33    76 1
    75    33    77 1
    76    34    35 1
    77    35    36 1
    78    35    78 1
    79    35    79 1
    80    36    37 1
    81    36    80 1
    82    36    81 1
    83    37    38 1
    84    37    82 1
    85    37    83 1
    86    38    84 1
    87    38    85 1
    88    38    86 1
@<TRIPOS>SUBSTRUCTURE
     1 DPD         1 TEMP              0 ****  ****    0 ROOT
