@<TRIPOS>MOLECULE
molecule
   42    41     1     0     0
SMALL
bcc


@<TRIPOS>ATOM
      1 C1           0.0000     0.0000     0.0000 c3         1 DPE      -0.276600
      2 C2           1.5240     0.0000     0.0000 c3         1 DPE      -0.065400
      3 C3           2.1380     0.0000     1.4000 c3         1 DPE      -0.095400
      4 C4           3.6670    -0.0770     1.3920 c3         1 DPE      -0.072400
      5 C5           4.2260    -0.1450     2.8140 c3         1 DPE      -0.078400
      6 C6           5.7560    -0.1910     2.8090 c3         1 DPE      -0.076400
      7 C7           6.3130    -0.2250     4.2340 c3         1 DPE      -0.078400
      8 C8           7.8420    -0.2940     4.2880 c3         1 DPE      -0.079400
      9 C9           8.3960    -0.4040     5.7100 c3         1 DPE      -0.077400
     10 C10          9.9250    -0.4560     5.7060 c3         1 DPE      -0.082400
     11 C11         10.4830    -0.5330     7.1180 c3         1 DPE      -0.090100
     12 P           -0.6760     1.4500     0.8470 p5         1 DPE       1.134300
     13 O1P         -0.5120     2.6520    -0.0460 o          1 DPE      -0.736300
     14 O2P         -2.2450     1.0380     0.9660 os         1 DPE      -0.530200
     15 CM          -2.5880    -0.1790     1.6040 c3         1 DPE       0.167700
     16 H11         -0.3520    -0.0050    -1.0240 hc         1 DPE       0.080700
     17 H12         -0.3520    -0.8950     0.4980 hc         1 DPE       0.080700
     18 H21          1.8690     0.8800    -0.5290 hc         1 DPE       0.056200
     19 H22          1.8690    -0.8800    -0.5290 hc         1 DPE       0.056200
     20 H31          1.8400     0.9080     1.9100 hc         1 DPE       0.033700
     21 H32          1.7520    -0.8500     1.9490 hc         1 DPE       0.033700
     22 H41          4.0630     0.8010     0.8960 hc         1 DPE       0.045200
     23 H42          3.9740    -0.9610     0.8460 hc         1 DPE       0.045200
     24 H51          3.8470    -1.0350     3.3020 hc         1 DPE       0.039700
     25 H52          3.9000     0.7280     3.3660 hc         1 DPE       0.039700
     26 H61          6.1360     0.6870     2.3010 hc         1 DPE       0.041200
     27 H62          6.0830    -1.0770     2.2790 hc         1 DPE       0.041200
     28 H71          5.9090    -1.0920     4.7430 hc         1 DPE       0.037700
     29 H72          5.9880     0.6670     4.7550 hc         1 DPE       0.037700
     30 H81          8.1710    -1.1570     3.7210 hc         1 DPE       0.038200
     31 H82          8.2460     0.5990     3.8270 hc         1 DPE       0.038200
     32 H91          8.0720     0.4560     6.2840 hc         1 DPE       0.039200
     33 H92          8.0110    -1.3040     6.1730 hc         1 DPE       0.039200
     34 H101        10.2470    -1.3290     5.1500 hc         1 DPE       0.038700
     35 H102        10.3080     0.4340     5.2220 hc         1 DPE       0.038700
     36 H111        10.1050    -1.4220     7.6080 hc         1 DPE       0.033033
     37 H112        10.1770     0.3440     7.6760 hc         1 DPE       0.033033
     38 H113        11.5650    -0.5760     7.0770 hc         1 DPE       0.033033
     39 HM1         -3.5290    -0.0600     2.1280 h1         1 DPE       0.034367
     40 HM2         -2.6860    -0.9620     0.8620 h1         1 DPE       0.034367
     41 HM3         -1.8130    -0.4470     2.3120 h1         1 DPE       0.034367
     42 HP1         -0.0860     1.6590     2.1050 hp         1 DPE      -0.067400
@<TRIPOS>BOND
     1     1     2 1
     2     1    12 1
     3     1    16 1
     4     1    17 1
     5     2     3 1
     6     2    18 1
     7     2    19 1
     8     3     4 1
     9     3    20 1
    10     3    21 1
    11     4     5 1
    12     4    22 1
    13     4    23 1
    14     5     6 1
    15     5    24 1
    16     5    25 1
    17     6     7 1
    18     6    26 1
    19     6    27 1
    20     7     8 1
    21     7    28 1
    22     7    29 1
    23     8     9 1
    24     8    30 1
    25     8    31 1
    26     9    10 1
    27     9    32 1
    28     9    33 1
    29    10    11 1
    30    10    34 1
    31    10    35 1
    32    11    36 1
    33    11    37 1
    34    11    38 1
    35    12    13 2
    36    12    14 1
    37    14    15 1
    38    15    39 1
    39    15    40 1
    40    15    41 1
    41    42    12 1
@<TRIPOS>SUBSTRUCTURE
     1 DPE         1 TEMP              0 ****  ****    0 ROOT
