@<TRIPOS>MOLECULE
DPE
   42    41     1     0     0
SMALL
bcc


@<TRIPOS>ATOM
      1 C1          0.0570   -0.2350    0.2550 c3        1 DPE     -0.421600
      2 C2          1.5490    0.0040    0.2970 c3        1 DPE     -0.061400
      3 C3          2.1620   -0.3060    1.6490 c3        1 DPE     -0.080400
      4 C4          3.6560   -0.0600    1.6340 c3        1 DPE     -0.080400
      5 C5          4.2740   -0.3650    2.9810 c3        1 DPE     -0.078400
      6 C6          5.7690   -0.1240    2.9660 c3        1 DPE     -0.079400
      7 C7          6.3880   -0.4270    4.3130 c3        1 DPE     -0.078400
      8 C8          7.8820   -0.1880    4.2970 c3        1 DPE     -0.079400
      9 C9          8.5020   -0.4900    5.6440 c3        1 DPE     -0.079400
     10 C10         9.9970   -0.2530    5.6290 c3        1 DPE     -0.080400
     11 C11        10.6180   -0.5510    6.9690 c3        1 DPE     -0.092100
     12 P          -0.7520    1.1890    0.0960 p5        1 DPE      1.467300
     13 O1P        -0.4650    2.0180   -1.0600 o         1 DPE     -0.815300
     14 O2P        -2.3210    0.7810    0.1390 os        1 DPE     -0.586200
     15 CM         -2.9150    0.4720    1.3660 c3        1 DPE      0.165700
     16 H11        -0.2570   -0.8180    1.1590 hc        1 DPE      0.106200
     17 H12        -0.1720   -0.9140   -0.6110 hc        1 DPE      0.106200
     18 H21         2.0640   -0.6360   -0.4720 hc        1 DPE      0.056200
     19 H22         1.7680    1.0720    0.0170 hc        1 DPE      0.056200
     20 H31         1.6900    0.3250    2.4470 hc        1 DPE      0.041200
     21 H32         1.9600   -1.3780    1.9130 hc        1 DPE      0.041200
     22 H41         4.1350   -0.6990    0.8460 hc        1 DPE      0.044200
     23 H42         3.8590    1.0100    1.3600 hc        1 DPE      0.044200
     24 H51         3.7980    0.2780    3.7680 hc        1 DPE      0.039700
     25 H52         4.0680   -1.4330    3.2570 hc        1 DPE      0.039700
     26 H61         6.2450   -0.7670    2.1790 hc        1 DPE      0.041200
     27 H62         5.9750    0.9440    2.6880 hc        1 DPE      0.041200
     28 H71         5.9130    0.2180    5.0990 hc        1 DPE      0.039700
     29 H72         6.1800   -1.4940    4.5910 hc        1 DPE      0.039700
     30 H81         8.0900    0.8780    4.0170 hc        1 DPE      0.040200
     31 H82         8.3580   -0.8340    3.5120 hc        1 DPE      0.040200
     32 H91         8.2930   -1.5560    5.9250 hc        1 DPE      0.039700
     33 H92         8.0280    0.1570    6.4300 hc        1 DPE      0.039700
     34 H101       10.2030    0.8130    5.3460 hc        1 DPE      0.038700
     35 H102       10.4690   -0.8990    4.8430 hc        1 DPE      0.038700
     36 H111       11.7200   -0.3700    6.9350 hc        1 DPE      0.032700
     37 H112       10.1780    0.1010    7.7620 hc        1 DPE      0.032700
     38 H113       10.4440   -1.6160    7.2560 hc        1 DPE      0.032700
     39 HM1        -2.1610    0.5150    2.1950 h1        1 DPE      0.032367
     40 HM2        -3.3550   -0.5580    1.3000 h1        1 DPE      0.032367
     41 HM3        -3.7420    1.2050    1.5600 h1        1 DPE      0.032367
     42 HP1        -0.5870    1.7410    1.2510 hp        1 DPE     -0.188400
@<TRIPOS>BOND
     1    1    2 1   
     2    1   12 1   
     3    1   16 1   
     4    1   17 1   
     5    2    3 1   
     6    2   18 1   
     7    2   19 1   
     8    3    4 1   
     9    3   20 1   
    10    3   21 1   
    11    4    5 1   
    12    4   22 1   
    13    4   23 1   
    14    5    6 1   
    15    5   24 1   
    16    5   25 1   
    17    6    7 1   
    18    6   26 1   
    19    6   27 1   
    20    7    8 1   
    21    7   28 1   
    22    7   29 1   
    23    8    9 1   
    24    8   30 1   
    25    8   31 1   
    26    9   10 1   
    27    9   32 1   
    28    9   33 1   
    29   10   11 1   
    30   10   34 1   
    31   10   35 1   
    32   11   36 1   
    33   11   37 1   
    34   11   38 1   
    35   12   13 2   
    36   12   14 1   
    37   12   42 1   
    38   14   15 1   
    39   15   39 1   
    40   15   40 1   
    41   15   41 1   
@<TRIPOS>SUBSTRUCTURE
     1 DPE         1 TEMP              0 ****  ****    0 ROOT
