@<TRIPOS>MOLECULE
molecule
   19    18     1     0     0
SMALL
bcc


@<TRIPOS>ATOM
      1 O4           0.0000     0.0000     0.0000 o          1 DPF      -0.832000
      2 P1           1.6100     0.0000     0.0000 p5         1 DPF       1.369800
      3 O2           2.1040     0.0000     1.3950 o          1 DPF      -0.832000
      4 O3           2.1460    -1.3150    -0.7600 os         1 DPF      -0.607200
      5 C1           1.9280    -2.6390    -0.2700 c3         1 DPF       0.227400
      6 C4           2.5660    -3.6480    -1.2280 c3         1 DPF      -0.101100
      7 O1           2.1460     1.3150    -0.7600 os         1 DPF      -0.607200
      8 C2           1.9280     2.6390    -0.2700 c3         1 DPF       0.227400
      9 C3           2.5660     3.6480    -1.2280 c3         1 DPF      -0.101100
     10 H41          2.4150    -4.6510    -0.8480 hc         1 DPF       0.025367
     11 H42          3.6280    -3.4480    -1.3080 hc         1 DPF       0.025367
     12 H43          2.1070    -3.5590    -2.2050 hc         1 DPF       0.025367
     13 H11          2.3750    -2.7390     0.7110 h1         1 DPF       0.026200
     14 H12          0.8630    -2.8280    -0.2030 h1         1 DPF       0.026200
     15 H21          0.8630     2.8280    -0.2030 h1         1 DPF       0.026200
     16 H22          2.3750     2.7390     0.7110 h1         1 DPF       0.026200
     17 H31          3.6280     3.4480    -1.3080 hc         1 DPF       0.025367
     18 H32          2.1070     3.5590    -2.2050 hc         1 DPF       0.025367
     19 H33          2.4150     4.6510    -0.8480 hc         1 DPF       0.025367
@<TRIPOS>BOND
     1     1     2 1
     2     2     4 1
     3     2     3 1
     4     2     7 1
     5     4     5 1
     6     5     6 1
     7     5    13 1
     8     5    14 1
     9     6    10 1
    10     6    11 1
    11     6    12 1
    12     7     8 1
    13     8     9 1
    14     8    15 1
    15     8    16 1
    16     9    17 1
    17     9    18 1
    18     9    19 1
@<TRIPOS>SUBSTRUCTURE
     1 DPF         1 TEMP              0 ****  ****    0 ROOT
