@<TRIPOS>MOLECULE
DPF
   19    18     1     0     0
SMALL
bcc


@<TRIPOS>ATOM
      1 O4         -0.1930    0.7220    0.7310 o         1 DPF     -0.827500
      2 P1          1.0720   -0.0320    0.8200 p5        1 DPF      1.414800
      3 O2          1.5520   -0.8100    1.9780 o         1 DPF     -0.827500
      4 O3          1.1470   -1.0100   -0.5100 os        1 DPF     -0.575200
      5 C1          2.1980   -1.9310   -0.4450 c3        1 DPF      0.172400
      6 C4          2.2040   -2.7850   -1.6930 c3        1 DPF     -0.091100
      7 O1          2.2970    0.9870    0.3800 os        1 DPF     -0.575200
      8 C2          1.8990    1.9280   -0.5730 c3        1 DPF      0.172400
      9 C3          3.0700    2.8190   -0.9280 c3        1 DPF     -0.091100
     10 H41         3.0400   -3.5220   -1.6440 hc        1 DPF      0.020367
     11 H42         1.2380   -3.3340   -1.7900 hc        1 DPF      0.020367
     12 H43         2.3330   -2.1470   -2.5990 hc        1 DPF      0.020367
     13 H11         2.0680   -2.5640    0.4770 h1        1 DPF      0.026700
     14 H12         3.1640   -1.3610   -0.3450 h1        1 DPF      0.026700
     15 H21         1.0460    2.5320   -0.1540 h1        1 DPF      0.026700
     16 H22         1.5260    1.3790   -1.4820 h1        1 DPF      0.026700
     17 H31         3.9080    2.2100   -1.3430 hc        1 DPF      0.020367
     18 H32         3.4420    3.3480   -0.0190 hc        1 DPF      0.020367
     19 H33         2.7560    3.5730   -1.6880 hc        1 DPF      0.020367
@<TRIPOS>BOND
     1    1    2 1   
     2    2    3 1   
     3    2    4 1   
     4    2    7 1   
     5    4    5 1   
     6    5    6 1   
     7    5   13 1   
     8    5   14 1   
     9    6   10 1   
    10    6   11 1   
    11    6   12 1   
    12    7    8 1   
    13    8    9 1   
    14    8   15 1   
    15    8   16 1   
    16    9   17 1   
    17    9   18 1   
    18    9   19 1   
@<TRIPOS>SUBSTRUCTURE
     1 DPF         1 TEMP              0 ****  ****    0 ROOT
