@<TRIPOS>MOLECULE
DPH
   23    23     1     0     0
SMALL
bcc


@<TRIPOS>ATOM
      1 CM          0.0150   -0.1760   -0.3650 c3        1 DPH     -0.066100
      2 CA          1.4640   -0.0140    0.0250 c3        1 DPH     -0.182700
      3 CB          1.6520   -0.0910    1.5310 c3        1 DPH     -0.043100
      4 CG          1.3460    1.1870    2.2310 ca        1 DPH     -0.033300
      5 CD1         0.2700    1.2820    3.1220 ca        1 DPH     -0.138000
      6 CD2         2.1510    2.3170    2.0210 ca        1 DPH     -0.138000
      7 CE1         0.0040    2.4770    3.7880 ca        1 DPH     -0.137500
      8 CE2         1.8830    3.5100    2.6870 ca        1 DPH     -0.137500
      9 CZ          0.8090    3.5940    3.5740 ca        1 DPH     -0.163000
     10 C           2.3410   -1.0700   -0.7020 c         1 DPH      0.912600
     11 O           3.2900   -1.6110   -0.0660 o         1 DPH     -0.844300
     12 OXT         2.0790   -1.3110   -1.9140 o         1 DPH     -0.844300
     13 HM1        -0.6070    0.6550    0.0460 hc        1 DPH      0.018367
     14 HM2        -0.3900   -1.1430    0.0210 hc        1 DPH      0.018367
     15 HM3        -0.0680   -0.1850   -1.4790 hc        1 DPH      0.018367
     16 HA          1.8290    0.9860   -0.3380 hc        1 DPH      0.032700
     17 HB1         2.7260   -0.3730    1.7300 hc        1 DPH      0.063200
     18 HB2         1.0150   -0.9170    1.9430 hc        1 DPH      0.063200
     19 HD1        -0.3710    0.4050    3.2920 ha        1 DPH      0.134500
     20 HD2         2.9970    2.2470    1.3200 ha        1 DPH      0.134500
     21 HE1        -0.8450    2.5390    4.4840 ha        1 DPH      0.112500
     22 HE2         2.5200    4.3890    2.5130 ha        1 DPH      0.112500
     23 HZ          0.5990    4.5360    4.0980 ha        1 DPH      0.110000
@<TRIPOS>BOND
     1    1    2 1   
     2    1   13 1   
     3    1   14 1   
     4    1   15 1   
     5    2    3 1   
     6    2   10 1   
     7    2   16 1   
     8    3    4 1   
     9    3   17 1   
    10    3   18 1   
    11    4    5 ar  
    12    4    6 ar  
    13    5    7 ar  
    14    5   19 1   
    15    6    8 ar  
    16    6   20 1   
    17    7    9 ar  
    18    7   21 1   
    19    8    9 ar  
    20    8   22 1   
    21    9   23 1   
    22   10   11 1   
    23   10   12 1   
@<TRIPOS>SUBSTRUCTURE
     1 DPH         1 TEMP              0 ****  ****    0 ROOT
