@<TRIPOS>MOLECULE
molecule
   23    23     1     0     0
SMALL
bcc


@<TRIPOS>ATOM
      1 CM           0.0000     0.0000     0.0000 c3         1 DPH      -0.073100
      2 CA           1.5300     0.0000     0.0000 c3         1 DPH      -0.168700
      3 CB           2.0400     0.0000     1.4420 c3         1 DPH      -0.024100
      4 CG           1.5370     1.2290     2.1520 ca         1 DPH      -0.049300
      5 CD1          0.3300     1.1960     2.8230 ca         1 DPH      -0.131000
      6 CD2          2.2870     2.3900     2.1380 ca         1 DPH      -0.131000
      7 CE1         -0.1310     2.3250     3.4750 ca         1 DPH      -0.137000
      8 CE2          1.8250     3.5200     2.7860 ca         1 DPH      -0.137000
      9 CZ           0.6170     3.4860     3.4560 ca         1 DPH      -0.158000
     10 C            2.0320    -1.2310    -0.7110 c          1 DPH       0.895600
     11 O            2.7260    -2.0260    -0.1240 o          1 DPH      -0.850800
     12 OXT          1.7080    -1.4430    -1.9950 o          1 DPH      -0.850800
     13 HM1         -0.3610    -0.2840    -0.9810 hc         1 DPH       0.022367
     14 HM2         -0.3610     0.9920     0.2440 hc         1 DPH       0.022367
     15 HM3         -0.3610    -0.7080     0.7360 hc         1 DPH       0.022367
     16 HA           1.8910     0.8840    -0.5110 hc         1 DPH       0.041700
     17 HB1          3.1230     0.0000     1.4420 hc         1 DPH       0.055700
     18 HB2          1.6790    -0.8850     1.9530 hc         1 DPH       0.055700
     19 HD1         -0.2560     0.2850     2.8380 ha         1 DPH       0.132000
     20 HD2          3.2340     2.4170     1.6130 ha         1 DPH       0.132000
     21 HE1         -1.0770     2.2990     4.0010 ha         1 DPH       0.112000
     22 HE2          2.4120     4.4300     2.7730 ha         1 DPH       0.112000
     23 HZ           0.2560     4.3720     3.9650 ha         1 DPH       0.109000
@<TRIPOS>BOND
     1     1     2 1
     2     1    13 1
     3     1    14 1
     4     1    15 1
     5     2     3 1
     6     2    10 1
     7     2    16 1
     8     3     4 1
     9     3    17 1
    10     3    18 1
    11     4     5 ar
    12     4     6 ar
    13     5     7 ar
    14     5    19 1
    15     6     8 ar
    16     6    20 1
    17     7     9 ar
    18     7    21 1
    19     8     9 ar
    20     8    22 1
    21     9    23 1
    22    10    11 1
    23    10    12 1
@<TRIPOS>SUBSTRUCTURE
     1 DPH         1 TEMP              0 ****  ****    0 ROOT
