@<TRIPOS>MOLECULE
DPJ
   20    19     1     0     0
SMALL
bcc


@<TRIPOS>ATOM
      1 O4          0.3430   -0.0000    0.1140 oh        1 DPJ     -0.744400
      2 P2          1.9380    0.0010    0.1710 p5        1 DPJ      1.247200
      3 S1          2.5360    0.0030    1.9490 s         1 DPJ     -0.644000
      4 O3          2.3070   -1.2140   -0.7840 os        1 DPJ     -0.510200
      5 C7          2.0570   -2.5000   -0.2230 c3        1 DPJ      0.141400
      6 C9          2.5990   -3.5390   -1.1710 c3        1 DPJ     -0.095100
      7 O5          2.3060    1.2140   -0.7870 os        1 DPJ     -0.510200
      8 C6          2.0550    2.5010   -0.2290 c3        1 DPJ      0.141400
      9 C8          2.5960    3.5380   -1.1790 c3        1 DPJ     -0.095100
     10 H91         3.6990   -3.4070   -1.3050 hc        1 DPJ      0.056033
     11 H92         2.3970   -4.5550   -0.7530 hc        1 DPJ      0.056033
     12 H93         2.1100   -3.4470   -2.1710 hc        1 DPJ      0.056033
     13 H71         0.9440   -2.5950   -0.0960 h1        1 DPJ      0.058200
     14 H72         2.5670   -2.5460    0.7810 h1        1 DPJ      0.058200
     15 HO4        -0.1330    0.0010    0.9460 ho        1 DPJ      0.500000
     16 H61         0.9420    2.5950   -0.1010 h1        1 DPJ      0.058200
     17 H62         2.5660    2.5490    0.7750 h1        1 DPJ      0.058200
     18 H81         3.6960    3.4060   -1.3130 hc        1 DPJ      0.056033
     19 H82         2.1060    3.4430   -2.1780 hc        1 DPJ      0.056033
     20 H83         2.3940    4.5540   -0.7630 hc        1 DPJ      0.056033
@<TRIPOS>BOND
     1    1    2 1   
     2    1   15 1   
     3    2    3 2   
     4    2    4 1   
     5    2    7 1   
     6    4    5 1   
     7    5    6 1   
     8    5   13 1   
     9    5   14 1   
    10    6   10 1   
    11    6   11 1   
    12    6   12 1   
    13    7    8 1   
    14    8    9 1   
    15    8   16 1   
    16    8   17 1   
    17    9   18 1   
    18    9   19 1   
    19    9   20 1   
@<TRIPOS>SUBSTRUCTURE
     1 DPJ         1 TEMP              0 ****  ****    0 ROOT
