@<TRIPOS>MOLECULE
molecule
   20    19     1     0     0
SMALL
bcc


@<TRIPOS>ATOM
      1 O4           0.0000     0.0000     0.0000 oh         1 DPJ      -0.725400
      2 P2           1.6100     0.0000     0.0000 p5         1 DPJ       1.343200
      3 S1           2.2310     0.0000     1.7570 s          1 DPJ      -0.716000
      4 O3           2.1470    -1.3150    -0.7590 os         1 DPJ      -0.563200
      5 C7           2.1130    -2.6180    -0.1750 c3         1 DPJ       0.194400
      6 C9           2.6970    -3.6330    -1.1600 c3         1 DPJ      -0.093100
      7 O5           2.1470     1.3150    -0.7590 os         1 DPJ      -0.563200
      8 C6           2.1130     2.6180    -0.1750 c3         1 DPJ       0.194400
      9 C8           2.6970     3.6330    -1.1600 c3         1 DPJ      -0.093100
     10 H91          2.1490    -3.5870    -2.0930 hc         1 DPJ       0.052367
     11 H92          3.7400    -3.4020    -1.3410 hc         1 DPJ       0.052367
     12 H93          2.6150    -4.6290    -0.7420 hc         1 DPJ       0.052367
     13 H71          1.0880    -2.8850     0.0540 h1         1 DPJ       0.054200
     14 H72          2.6990    -2.6210     0.7360 h1         1 DPJ       0.054200
     15 HO4         -0.3140     0.0000     0.8890 ho         1 DPJ       0.493000
     16 H61          2.6990     2.6210     0.7360 h1         1 DPJ       0.054200
     17 H62          1.0880     2.8850     0.0540 h1         1 DPJ       0.054200
     18 H81          3.7400     3.4020    -1.3410 hc         1 DPJ       0.052367
     19 H82          2.1490     3.5870    -2.0930 hc         1 DPJ       0.052367
     20 H83          2.6150     4.6290    -0.7420 hc         1 DPJ       0.052367
@<TRIPOS>BOND
     1     1     2 1
     2     1    15 1
     3     2     4 1
     4     2     3 2
     5     2     7 1
     6     4     5 1
     7     5     6 1
     8     5    13 1
     9     5    14 1
    10     6    10 1
    11     6    11 1
    12     6    12 1
    13     7     8 1
    14     8     9 1
    15     8    16 1
    16     8    17 1
    17     9    18 1
    18     9    19 1
    19     9    20 1
@<TRIPOS>SUBSTRUCTURE
     1 DPJ         1 TEMP              0 ****  ****    0 ROOT
