@<TRIPOS>MOLECULE
DPK
   33    33     1     0     0
SMALL
bcc


@<TRIPOS>ATOM
      1 C12          0.0000     0.0000     0.0000 c2         1 DPK      -0.174000
      2 C11          1.3100     0.0000     0.0000 c2         1 DPK      -0.143200
      3 C10          2.0630     0.0000     1.3060 c3         1 DPK       0.151000
      4 N9           2.9950    -1.1340     1.3330 n3         1 DPK      -0.507600
      5 C9N          2.2170    -2.3120     1.7370 c3         1 DPK       0.159100
      6 C8           3.9520    -0.8690     2.4160 c3         1 DPK       0.115500
      7 C8C          3.2010    -0.3570     3.6450 c3         1 DPK      -0.050100
      8 C7           4.9600     0.1870     1.9570 c3         1 DPK       0.027900
      9 C1           5.7920    -0.3660     0.8300 ca         1 DPK      -0.080300
     10 C6           5.3630    -0.2270    -0.4770 ca         1 DPK      -0.091500
     11 C5           6.1260    -0.7350    -1.5130 ca         1 DPK      -0.102500
     12 C4           7.3160    -1.3830    -1.2410 ca         1 DPK      -0.106000
     13 C3           7.7440    -1.5220     0.0670 ca         1 DPK      -0.102500
     14 C2           6.9850    -1.0100     1.1010 ca         1 DPK      -0.091500
     15 H121        -0.5420     0.0000     0.9380 ha         1 DPK       0.083500
     16 H122        -0.5420     0.0000    -0.9380 ha         1 DPK       0.083500
     17 H11          1.8520     0.0000    -0.9380 ha         1 DPK       0.109000
     18 H101         2.6170     0.9260     1.4030 h1         1 DPK       0.026200
     19 H102         1.3620    -0.0890     2.1270 h1         1 DPK       0.026200
     20 H9N1         1.8220    -2.8030     0.8560 h1         1 DPK       0.007033
     21 H9N2         2.8560    -3.0000     2.2770 h1         1 DPK       0.007033
     22 H9N3         1.3980    -2.0030     2.3750 h1         1 DPK       0.007033
     23 H8           4.4760    -1.7830     2.6670 h1         1 DPK       0.042700
     24 H8C1         3.8590    -0.3780     4.5060 hc         1 DPK       0.014700
     25 H8C2         2.3410    -0.9900     3.8330 hc         1 DPK       0.014700
     26 H8C3         2.8690     0.6590     3.4690 hc         1 DPK       0.014700
     27 H7C1         4.4300     1.0680     1.6160 hc         1 DPK       0.022700
     28 H7C2         5.6060     0.4530     2.7860 hc         1 DPK       0.022700
     29 H6           4.4300     0.2810    -0.6900 ha         1 DPK       0.106000
     30 H5           5.7900    -0.6260    -2.5370 ha         1 DPK       0.100000
     31 H4           7.9130    -1.7830    -2.0510 ha         1 DPK       0.100000
     32 H3           8.6780    -2.0280     0.2800 ha         1 DPK       0.100000
     33 H2           7.3210    -1.1190     2.1250 ha         1 DPK       0.106000
@<TRIPOS>BOND
     1     1     2 2   
     2     1    15 1   
     3     1    16 1   
     4     2     3 1   
     5     2    17 1   
     6     3     4 1   
     7     3    18 1   
     8     3    19 1   
     9     4     5 1   
    10     4     6 1   
    11     5    20 1   
    12     5    21 1   
    13     5    22 1   
    14     6     7 1   
    15     6     8 1   
    16     6    23 1   
    17     7    24 1   
    18     7    25 1   
    19     7    26 1   
    20     8     9 1   
    21     8    27 1   
    22     8    28 1   
    23     9    10 ar  
    24     9    14 ar  
    25    10    11 ar  
    26    10    29 1   
    27    11    12 ar  
    28    11    30 1   
    29    12    13 ar  
    30    12    31 1   
    31    13    14 ar  
    32    13    32 1   
    33    14    33 1   
@<TRIPOS>SUBSTRUCTURE
     1 DPK         1 TEMP              0 ****  ****    0 ROOT
