@<TRIPOS>MOLECULE
molecule
   50    51     1     0     0
SMALL
bcc


@<TRIPOS>ATOM
      1 C1A          0.0000     0.0000     0.0000 cc         1 DPM      -0.171600
      2 C2A          1.3490     0.0000     0.0000 cd         1 DPM      -0.083300
      3 C3A          1.7710     0.0000     1.3440 cd         1 DPM      -0.139300
      4 C4A          0.6640     0.0010     2.1150 cc         1 DPM      -0.112600
      5 C5A          2.2400     0.0000    -1.2150 c3         1 DPM      -0.111100
      6 C6A          2.5390     1.4200    -1.6200 c          1 DPM       0.894600
      7 C7A          3.1970     0.0010     1.8310 c3         1 DPM       0.019900
      8 C8A          3.6800     1.4430     1.9960 c3         1 DPM      -0.191400
      9 C9A          5.1060     1.4430     2.4830 c          1 DPM       0.893600
     10 CHA         -0.8830    -0.0010    -1.2210 c3         1 DPM       0.004200
     11 NA          -0.4260    -0.0060     1.2950 na         1 DPM      -0.163100
     12 O1A          2.0740     2.3390    -0.9870 o          1 DPM      -0.859300
     13 O2A          3.3190     1.6650    -2.6840 o          1 DPM      -0.859300
     14 O3A          5.6780     0.3970     2.6780 o          1 DPM      -0.895300
     15 O4A          5.7410     2.6060     2.7000 o          1 DPM      -0.895300
     16 C1B          0.7510     1.4160     4.1260 cc         1 DPM      -0.126600
     17 C2B         -0.2680     2.2840     4.2810 cd         1 DPM      -0.089300
     18 C3B          0.2740     3.4880     4.7730 cd         1 DPM      -0.142300
     19 C4B          1.6050     3.3090     4.9000 cc         1 DPM      -0.181300
     20 C5B         -1.7210     2.0180     3.9830 c3         1 DPM      -0.104100
     21 C6B         -2.3940     1.4690     5.2140 c          1 DPM       0.896600
     22 C7B         -0.4910     4.7450     5.0980 c3         1 DPM       0.019900
     23 C8B         -1.0480     4.6490     6.5200 c3         1 DPM      -0.177400
     24 C9B         -1.8140     5.9060     6.8440 c          1 DPM       0.896600
     25 CHB          0.6370    -0.0000     3.6210 c3         1 DPM       0.081200
     26 NB           1.9050     2.0410     4.4980 na         1 DPM      -0.158100
     27 O1B         -1.7590     1.3110     6.2300 o          1 DPM      -0.875300
     28 O2B         -3.6990     1.1560     5.1820 o          1 DPM      -0.875300
     29 O3B         -1.9040     6.7880     6.0230 o          1 DPM      -0.898800
     30 O4B         -2.3950     6.0470     8.0460 o          1 DPM      -0.898800
     31 H5A1         3.1670    -0.5120    -0.9830 hc         1 DPM       0.018700
     32 H5A2         1.7400    -0.5100    -2.0300 hc         1 DPM       0.018700
     33 H7A1         3.2530    -0.5100     2.7850 hc         1 DPM       0.023700
     34 H7A2         3.8250    -0.5100     1.1110 hc         1 DPM       0.023700
     35 H8A1         3.0520     1.9540     2.7160 hc         1 DPM       0.069700
     36 H8A2         3.6240     1.9530     1.0420 hc         1 DPM       0.069700
     37 HCA1        -0.6420    -0.8570    -1.8400 hc         1 DPM       0.018367
     38 HCA2        -0.7210     0.9100    -1.7840 hc         1 DPM       0.018367
     39 HCA3        -1.9210    -0.0570    -0.9150 hc         1 DPM       0.018367
     40 H10         -1.3800    -0.0070     1.5950 hn         1 DPM       0.279700
     41 H4B1         2.3150     4.0470     5.2540 h4         1 DPM       0.140000
     42 H5B1        -2.2050     2.9420     3.6880 hc         1 DPM       0.026200
     43 H5B2        -1.7990     1.2980     3.1770 hc         1 DPM       0.026200
     44 H7B1         0.1700     5.5990     5.0260 hc         1 DPM       0.030200
     45 H7B2        -1.3090     4.8610     4.3970 hc         1 DPM       0.030200
     46 H8B1        -0.2300     4.5340     7.2210 hc         1 DPM       0.052200
     47 H8B2        -1.7090     3.7940     6.5930 hc         1 DPM       0.052200
     48 HCB1         1.4670    -0.5860     3.9970 hc         1 DPM       0.043200
     49 HCB2        -0.2950    -0.4320     3.9650 hc         1 DPM       0.043200
     50 H22          2.8190     1.6330     4.4860 hn         1 DPM       0.296700
@<TRIPOS>BOND
     1     1     2 2
     2     1    10 1
     3     1    11 1
     4     2     3 1
     5     2     5 1
     6     3     4 2
     7     3     7 1
     8     4    11 1
     9     4    25 1
    10     5     6 1
    11     6    12 1
    12     6    13 1
    13     7     8 1
    14     8     9 1
    15     9    14 1
    16     9    15 1
    17    16    17 2
    18    16    25 1
    19    16    26 1
    20    17    18 1
    21    17    20 1
    22    18    19 2
    23    18    22 1
    24    19    26 1
    25    20    21 1
    26    21    27 1
    27    21    28 1
    28    22    23 1
    29    23    24 1
    30    24    29 1
    31    24    30 1
    32     5    31 1
    33     5    32 1
    34     7    33 1
    35     7    34 1
    36     8    35 1
    37     8    36 1
    38    10    37 1
    39    10    38 1
    40    10    39 1
    41    11    40 1
    42    19    41 1
    43    20    42 1
    44    20    43 1
    45    22    44 1
    46    22    45 1
    47    23    46 1
    48    23    47 1
    49    25    48 1
    50    25    49 1
    51    26    50 1
@<TRIPOS>SUBSTRUCTURE
     1 DPM         1 TEMP              0 ****  ****    0 ROOT
