@<TRIPOS>MOLECULE
DPM
   50    51     1     0     0
SMALL
bcc


@<TRIPOS>ATOM
      1 C1A         0.6370    1.3170   -0.1220 cc        1 DPM     -0.142600
      2 C2A         1.8430    0.5910   -0.1210 cd        1 DPM     -0.083300
      3 C3A         2.0810    0.1680    1.2470 cd        1 DPM     -0.153300
      4 C4A         0.9970    0.6290    2.0240 cc        1 DPM     -0.119600
      5 C5A         2.7600    0.3210   -1.2410 c3        1 DPM     -0.113100
      6 C6A         2.1910    0.3010   -2.6660 c         1 DPM      0.907600
      7 C7A         3.2340   -0.6240    1.7240 c3        1 DPM      0.009900
      8 C8A         4.5320    0.1580    1.7670 c3        1 DPM     -0.172400
      9 C9A         5.7530   -0.6670    2.1810 c         1 DPM      0.903600
     10 CHA        -0.0600    1.9910   -1.2310 c3        1 DPM     -0.031800
     11 NA          0.1250    1.3170    1.1800 na        1 DPM     -0.187100
     12 O1A         2.2950    1.3490   -3.3840 o         1 DPM     -0.881800
     13 O2A         1.7030   -0.7690   -3.1390 o         1 DPM     -0.881800
     14 O3A         5.7270   -1.9330    2.1520 o         1 DPM     -0.883300
     15 O4A         6.8000   -0.0330    2.5320 o         1 DPM     -0.883300
     16 C1B         0.2860    1.7300    4.1280 cc        1 DPM     -0.113600
     17 C2B        -0.8940    2.0840    4.8190 cd        1 DPM     -0.104300
     18 C3B        -0.7350    3.4600    5.2490 cd        1 DPM     -0.137300
     19 C4B         0.5330    3.8790    4.8140 cc        1 DPM     -0.208300
     20 C5B        -2.1110    1.2810    4.9970 c3        1 DPM     -0.118100
     21 C6B        -1.9840   -0.0240    5.8040 c         1 DPM      0.912600
     22 C7B        -1.7130    4.2840    5.9850 c3        1 DPM      0.007900
     23 C8B        -1.2580    5.7130    6.1990 c3        1 DPM     -0.174400
     24 C9B        -2.3130    6.6210    6.8380 c         1 DPM      0.903600
     25 CHB         0.6750    0.4550    3.4670 c3        1 DPM      0.031200
     26 NB          1.1510    2.8290    4.1490 na        1 DPM     -0.187100
     27 O1B        -2.3880   -0.0390    7.0060 o         1 DPM     -0.867800
     28 O2B        -1.5710   -1.0690    5.2180 o         1 DPM     -0.867800
     29 O3B        -3.4710    6.7090    6.3300 o         1 DPM     -0.881300
     30 O4B        -1.9730    7.3200    7.8450 o         1 DPM     -0.881300
     31 H5A1        3.2460   -0.6780   -1.0620 hc        1 DPM      0.037700
     32 H5A2        3.5730    1.0990   -1.2180 hc        1 DPM      0.037700
     33 H7A1        3.0220   -1.0290    2.7500 hc        1 DPM      0.041700
     34 H7A2        3.3810   -1.5130    1.0500 hc        1 DPM      0.041700
     35 H8A1        4.4330    1.0200    2.4750 hc        1 DPM      0.025200
     36 H8A2        4.7410    0.5820    0.7500 hc        1 DPM      0.025200
     37 HCA1       -0.3320    3.0430   -0.9590 hc        1 DPM      0.037700
     38 HCA2        0.6070    2.0090   -2.1330 hc        1 DPM      0.037700
     39 HCA3       -1.0040    1.4490   -1.4950 hc        1 DPM      0.037700
     40 H10        -0.6840    1.7890    1.4810 hn        1 DPM      0.281700
     41 H4B1        1.0240    4.8410    4.9440 h4        1 DPM      0.139000
     42 H5B1       -2.5030    0.9970    3.9820 hc        1 DPM      0.025700
     43 H5B2       -2.8870    1.9160    5.5040 hc        1 DPM      0.025700
     44 H7B1       -2.6890    4.2980    5.4260 hc        1 DPM      0.047700
     45 H7B2       -1.9190    3.8040    6.9810 hc        1 DPM      0.047700
     46 H8B1       -0.9860    6.1680    5.2110 hc        1 DPM      0.016700
     47 H8B2       -0.3390    5.7230    6.8400 hc        1 DPM      0.016700
     48 HCB1        1.5730    0.0170    3.9830 hc        1 DPM      0.093700
     49 HCB2       -0.1780   -0.2750    3.6070 hc        1 DPM      0.093700
     50 H22         2.0190    2.8600    3.6860 hn        1 DPM      0.286700
@<TRIPOS>BOND
     1    1    2 2   
     2    1   10 1   
     3    1   11 1   
     4    2    3 1   
     5    2    5 1   
     6    3    4 2   
     7    3    7 1   
     8    4   11 1   
     9    4   25 1   
    10    5    6 1   
    11    5   31 1   
    12    5   32 1   
    13    6   12 1   
    14    6   13 1   
    15    7    8 1   
    16    7   33 1   
    17    7   34 1   
    18    8    9 1   
    19    8   35 1   
    20    8   36 1   
    21    9   14 1   
    22    9   15 1   
    23   10   37 1   
    24   10   38 1   
    25   10   39 1   
    26   11   40 1   
    27   16   17 2   
    28   16   25 1   
    29   16   26 1   
    30   17   18 1   
    31   17   20 1   
    32   18   19 2   
    33   18   22 1   
    34   19   26 1   
    35   19   41 1   
    36   20   21 1   
    37   20   42 1   
    38   20   43 1   
    39   21   27 1   
    40   21   28 1   
    41   22   23 1   
    42   22   44 1   
    43   22   45 1   
    44   23   24 1   
    45   23   46 1   
    46   23   47 1   
    47   24   29 1   
    48   24   30 1   
    49   25   48 1   
    50   25   49 1   
    51   26   50 1   
@<TRIPOS>SUBSTRUCTURE
     1 DPM         1 TEMP              0 ****  ****    0 ROOT
