@<TRIPOS>MOLECULE
DPO
    9     8     1     0     0
SMALL
bcc


@<TRIPOS>ATOM
      1 P1         -1.6710   -0.0500   -0.0220 p5        1 DPO      1.493900
      2 O1         -2.1100   -1.4890   -0.2800 o         1 DPO     -1.021500
      3 O2         -2.1780    0.8700   -1.1300 o         1 DPO     -1.021500
      4 O3         -2.1720    0.4260    1.3390 o         1 DPO     -1.021500
      5 O4          0.0000    0.0000   -0.0170 os        1 DPO     -0.855800
      6 P2          1.6710    0.0500   -0.0130 p5        1 DPO      1.493900
      7 O5          2.1100    1.4900    0.2440 o         1 DPO     -1.021500
      8 O6          2.1780   -0.8690    1.0960 o         1 DPO     -1.021500
      9 O7          2.1720   -0.4270   -1.3740 o         1 DPO     -1.021500
@<TRIPOS>BOND
     1    1    2 1   
     2    1    3 1   
     3    1    4 1   
     4    1    5 1   
     5    5    6 1   
     6    6    7 1   
     7    6    8 1   
     8    6    9 1   
@<TRIPOS>SUBSTRUCTURE
     1 DPO         1 TEMP              0 ****  ****    0 ROOT
