@<TRIPOS>MOLECULE
molecule
    9     8     1     0     0
SMALL
bcc


@<TRIPOS>ATOM
      1 P1          -1.2930     0.0000     0.0840 p5         1 DPO       1.237400
      2 O1          -1.2710    -1.2790    -0.8210 o          1 DPO      -0.962167
      3 O2          -1.2710     1.2790    -0.8210 o          1 DPO      -0.962167
      4 O3          -2.5920     0.0000     0.9580 o          1 DPO      -0.962167
      5 O4           0.0000     0.0000     1.0430 os         1 DPO      -0.701800
      6 P2           1.2930     0.0000     0.0840 p5         1 DPO       1.237400
      7 O5           1.5590     1.4550    -0.4340 o          1 DPO      -0.962167
      8 O6           2.5390    -0.5050     0.8860 o          1 DPO      -0.962167
      9 O7           1.0370    -0.9490    -1.1360 o          1 DPO      -0.962167
@<TRIPOS>BOND
     1     1     2 1
     2     1     3 1
     3     1     4 1
     4     1     5 1
     5     5     6 1
     6     6     7 1
     7     6     8 1
     8     6     9 1
@<TRIPOS>SUBSTRUCTURE
     1 DPO         1 TEMP              0 ****  ****    0 ROOT
