@<TRIPOS>MOLECULE
DPS
   64    69     1     0     0
SMALL
bcc


@<TRIPOS>ATOM
      1 N1           0.0000     0.0000     0.0000 nh         1 DPS       0.020000
      2 C2          -1.7530     0.0090    -1.6590 ca         1 DPS      -0.160500
      3 C3          -2.1460     0.0160    -2.9830 ca         1 DPS      -0.008000
      4 C4          -1.1960     0.0210    -3.9870 ca         1 DPS      -0.471000
      5 C5           0.1490     0.0140    -3.6710 ca         1 DPS      -0.008000
      6 N7           0.7330     1.5960   -10.1870 n7         1 DPS       0.876000
      7 C8          -0.2890     1.8810    -6.5590 DU         1 DPS      -0.261000
      8 C10          2.6640     1.1430     6.2570 c2         1 DPS      -0.056000
      9 C11          1.5020     1.2690     2.1480 c3         1 DPS      -0.009000
     10 C12          3.3780     1.9150     5.3600 c2         1 DPS      -0.151000
     11 O1          -3.4020    -0.0370    -5.8360 o          1 DPS      -0.820000
     12 O2          -1.4900    -0.8600    -6.8700 o          1 DPS      -0.820000
     13 C1          -0.4010     0.0070    -1.3370 ca         1 DPS      -0.003000
     14 C6           0.5500     0.0130    -2.3500 ca         1 DPS      -0.160500
     15 C7          -0.0240     1.3450     2.0490 c3         1 DPS      -0.131500
     16 C13          1.9840     0.0000     1.4400 c3         1 DPS      -0.131500
     17 C15          1.4660     0.0000     0.0000 c3         1 DPS      -0.110000
     18 C18         -0.4360     1.2750     0.5780 c3         1 DPS      -0.110000
     19 C14          3.1830     1.5990     4.1360 c2         1 DPS       0.002000
     20 C16          1.9120     1.2250     3.5980 c2         1 DPS      -0.132000
     21 C17          1.0110     1.2970     4.7050 c1         1 DPS      -0.107000
     22 C19          1.7440     0.0570     6.1380 c1         1 DPS      -0.084000
     23 N           -1.5750     1.5520    -6.4190 n7         1 DPS      -0.345000
     24 C20         -0.3040     2.2610    -8.4020 DU         1 DPS       0.188000
     25 C9           0.1230     3.4190    -6.1020 c2         1 DPS       0.594000
     26 O3           1.1630     3.4500    -5.6420 o          1 DPS      -0.537500
     27 O4          -0.7340     3.9380    -5.8840 o          1 DPS      -0.537500
     28 C21          3.6600     3.4780    -9.1380 c2         1 DPS      -0.094000
     29 C22          2.9800     3.2860    -9.9220 c2         1 DPS       0.034000
     30 C23          1.3060     2.6620    -9.8910 c2         1 DPS      -0.412000
     31 C24          1.1840     3.1020    -8.6840 cy         1 DPS      -0.224000
     32 C25          1.5510     4.0940    -7.9080 c2         1 DPS       0.074000
     33 C26          3.0730     4.3960    -8.1230 c2         1 DPS      -0.363000
     34 C27          0.1450     1.0680    -9.4130 cy         1 DPS      -0.796000
     35 C28          0.3490     2.0540    -8.1550 cv         1 DPS      -0.117000
     36 H2          -2.5760     0.1280    -0.9640 ha         1 DPS       0.131000
     37 H3          -3.1280    -0.1860    -3.3920 ha         1 DPS       0.112500
     38 H5           0.7510    -0.6360    -4.2940 ha         1 DPS       0.112500
     39 H8           0.3980     1.0470    -6.6310 ha         1 DPS       0.117000
     40 H10          2.5500     1.6530     7.2060 ha         1 DPS       0.055000
     41 H11          1.9380     2.1370     1.6690 hc         1 DPS       0.071000
     42 H12          3.7800     2.8930     5.5980 ha         1 DPS       0.132000
     43 H6           1.6020    -0.1680    -2.5360 ha         1 DPS       0.131000
     44 H71         -0.3720     0.7560     2.8880 hc         1 DPS       0.054500
     45 H72         -0.3660     2.2400     2.5540 hc         1 DPS       0.054500
     46 H131         2.0620    -0.8650     2.0880 hc         1 DPS       0.054500
     47 H132         3.0510     0.0100     1.2560 hc         1 DPS       0.054500
     48 H151         1.5480    -0.9490    -0.5170 h1         1 DPS       0.089500
     49 H152         1.5830     1.0740    -0.0770 h1         1 DPS       0.089500
     50 H181        -0.0720     2.2460     0.2660 h1         1 DPS       0.089500
     51 H182        -1.5100     1.3360     0.4530 h1         1 DPS       0.089500
     52 H14          3.7990     1.7110     3.2520 ha         1 DPS       0.091000
     53 H17         -0.0530     1.2600     4.5040 ha         1 DPS       0.088000
     54 H19          1.1430    -0.0540     7.0330 ha         1 DPS       0.065000
     55 HN          -2.2310     2.2900    -6.5810 hn         1 DPS       0.148000
     56 H201        -1.1870     1.7290    -8.7350 ha         1 DPS      -0.030500
     57 H202        -0.2280     2.9770    -9.2120 ha         1 DPS      -0.030500
     58 H22          3.2290     2.5390   -10.6670 ha         1 DPS       0.028000
     59 H25          1.1410     4.8120    -7.2080 ha         1 DPS       0.153000
     60 H26          3.5890     5.1710    -7.5700 ha         1 DPS       0.109000
     61 H27         -0.7250     0.4800    -9.6800 h1         1 DPS       0.185000
     62 HN7          1.3700     1.0610   -10.7440 hn         1 DPS      -0.130000
     63 S           -1.9870    -0.1030    -5.7610 s6         1 DPS       2.143000
     64 H21          4.5480     4.0820    -9.2830 ha         1 DPS       0.115000
@<TRIPOS>BOND
     1     1    13 1   
     2     1    17 1   
     3     1    18 1   
     4     2     3 1   
     5     2    13 1   
     6     2    36 1   
     7     3     4 1   
     8     3    37 1   
     9     4     5 1   
    10     4    63 1   
    11     5    14 1   
    12     5    38 1   
    13     6    30 1   
    14     6    34 1   
    15     6    62 1   
    16     7    23 1   
    17     7    24 1   
    18     7    25 1   
    19     7    35 1   
    20     7    39 1   
    21     8    10 1   
    22     8    22 1   
    23     8    40 1   
    24     9    15 1   
    25     9    16 1   
    26     9    20 1   
    27     9    41 1   
    28    10    19 1   
    29    10    42 1   
    30    11    63 1   
    31    12    63 1   
    32    13    14 1   
    33    14    43 1   
    34    15    18 1   
    35    15    44 1   
    36    15    45 1   
    37    16    17 1   
    38    16    46 1   
    39    16    47 1   
    40    17    48 1   
    41    17    49 1   
    42    18    50 1   
    43    18    51 1   
    44    19    20 1   
    45    19    52 1   
    46    20    21 1   
    47    21    53 1   
    48    22    54 1   
    49    23    55 1   
    50    23    63 1   
    51    24    31 1   
    52    24    34 1   
    53    24    56 1   
    54    24    57 1   
    55    25    26 1   
    56    25    27 1   
    57    28    29 1   
    58    28    33 1   
    59    28    64 1   
    60    29    30 1   
    61    29    58 1   
    62    30    31 1   
    63    31    32 1   
    64    31    35 1   
    65    32    33 1   
    66    32    59 1   
    67    33    60 1   
    68    34    35 1   
    69    34    61 1   
@<TRIPOS>SUBSTRUCTURE
     1 DPS         1 TEMP              0 ****  ****    0 ROOT
