@<TRIPOS>MOLECULE
molecule
   28    30     1     0     0
SMALL
bcc


@<TRIPOS>ATOM
      1 N1           0.0000     0.0000     0.0000 nb         1 DPT      -0.650000
      2 C2           1.3140     0.0000     0.0000 ca         1 DPT       0.426700
      3 C3           2.0400     0.0000     1.1850 ca         1 DPT      -0.252800
      4 C4           1.3840    -0.0010     2.3850 ca         1 DPT      -0.038300
      5 C4A         -0.0200    -0.0080     2.3770 ca         1 DPT      -0.150300
      6 C5          -0.7550    -0.0100     3.5840 ca         1 DPT      -0.112000
      7 C6          -2.1030    -0.0060     3.5810 ca         1 DPT      -0.112000
      8 C6A         -2.8360    -0.0010     2.3730 ca         1 DPT      -0.150300
      9 C7          -4.2410     0.0010     2.3770 ca         1 DPT      -0.038300
     10 C8          -4.8920     0.0060     1.1750 ca         1 DPT      -0.252800
     11 C9          -4.1620     0.0080    -0.0080 ca         1 DPT       0.426700
     12 N10         -2.8470     0.0050    -0.0040 nb         1 DPT      -0.650000
     13 C10         -2.1600    -0.0030     1.1340 ca         1 DPT       0.384300
     14 C1A         -0.6920    -0.0020     1.1360 ca         1 DPT       0.384300
     15 C11          2.1500    -0.0010     3.6840 c3         1 DPT      -0.050800
     16 C12         -5.0100    -0.0020     3.6730 c3         1 DPT      -0.050800
     17 H2           1.8430     0.0010    -0.9450 h4         1 DPT       0.025100
     18 H3           3.1230    -0.0000     1.1580 ha         1 DPT       0.138000
     19 H5          -0.2260    -0.0150     4.5290 ha         1 DPT       0.133000
     20 H6          -2.6360    -0.0060     4.5240 ha         1 DPT       0.133000
     21 H8          -5.9750     0.0090     1.1440 ha         1 DPT       0.138000
     22 H9          -4.6880     0.0120    -0.9550 h4         1 DPT       0.025100
     23 H111         1.8990    -0.8890     4.2520 hc         1 DPT       0.049033
     24 H112         3.2140     0.0050     3.4770 hc         1 DPT       0.049033
     25 H113         1.8890     0.8800     4.2580 hc         1 DPT       0.049033
     26 H121        -4.7540     0.8810     4.2470 hc         1 DPT       0.049033
     27 H122        -4.7560    -0.8880     4.2420 hc         1 DPT       0.049033
     28 H123        -6.0720     0.0000     3.4630 hc         1 DPT       0.049033
@<TRIPOS>BOND
     1     1     2 ar
     2     1    14 ar
     3     2     3 ar
     4     2    17 1
     5     3     4 ar
     6     3    18 1
     7     4     5 ar
     8     4    15 1
     9     5     6 ar
    10     5    14 ar
    11     6     7 ar
    12     6    19 1
    13     7     8 ar
    14     7    20 1
    15     8     9 ar
    16     8    13 ar
    17     9    10 ar
    18     9    16 1
    19    10    11 ar
    20    10    21 1
    21    11    12 ar
    22    11    22 1
    23    12    13 ar
    24    13    14 ar
    25    15    23 1
    26    15    24 1
    27    15    25 1
    28    16    26 1
    29    16    27 1
    30    16    28 1
@<TRIPOS>SUBSTRUCTURE
     1 DPT         1 TEMP              0 ****  ****    0 ROOT
