@<TRIPOS>MOLECULE
DPT
   28    30     1     0     0
SMALL
bcc


@<TRIPOS>ATOM
      1 N1         -0.0140    0.0040   -0.0470 nb        1 DPT     -0.626000
      2 C2          1.3130    0.0030   -0.0120 ca        1 DPT      0.404200
      3 C3          2.0800   -0.0000    1.1820 ca        1 DPT     -0.246300
      4 C4          1.4170   -0.0030    2.3970 ca        1 DPT     -0.032300
      5 C4A        -0.0070   -0.0020    2.3980 ca        1 DPT     -0.143300
      6 C5         -0.7510   -0.0040    3.6200 ca        1 DPT     -0.113000
      7 C6         -2.1080   -0.0040    3.6180 ca        1 DPT     -0.113000
      8 C6A        -2.8480   -0.0010    2.3940 ca        1 DPT     -0.143300
      9 C7         -4.2730    0.0000    2.3880 ca        1 DPT     -0.032300
     10 C8         -4.9320    0.0030    1.1710 ca        1 DPT     -0.246300
     11 C9         -4.1620    0.0050   -0.0200 ca        1 DPT      0.404200
     12 N10        -2.8340    0.0050   -0.0510 nb        1 DPT     -0.626000
     13 C10        -2.1610    0.0020    1.1460 ca        1 DPT      0.361300
     14 C1A        -0.6900    0.0010    1.1480 ca        1 DPT      0.361300
     15 C11         2.1770   -0.0060    3.6680 c3        1 DPT     -0.061800
     16 C12        -5.0360   -0.0030    3.6580 c3        1 DPT     -0.061800
     17 H2          1.8190    0.0050   -0.9950 h4        1 DPT      0.025100
     18 H3          3.1770   -0.0000    1.1260 ha        1 DPT      0.144000
     19 H5         -0.1940   -0.0070    4.5700 ha        1 DPT      0.136000
     20 H6         -2.6680   -0.0060    4.5660 ha        1 DPT      0.136000
     21 H8         -6.0290    0.0040    1.1130 ha        1 DPT      0.144000
     22 H9         -4.6650    0.0080   -1.0050 h4        1 DPT      0.025100
     23 H111        1.9250    0.9010    4.2740 hc        1 DPT      0.051033
     24 H112        3.2790   -0.0060    3.4790 hc        1 DPT      0.051033
     25 H113        1.9240   -0.9150    4.2710 hc        1 DPT      0.051033
     26 H121       -4.7860   -0.9120    4.2610 hc        1 DPT      0.051033
     27 H122       -4.7850    0.9040    4.2650 hc        1 DPT      0.051033
     28 H123       -6.1370   -0.0020    3.4650 hc        1 DPT      0.051033
@<TRIPOS>BOND
     1    1    2 ar  
     2    1   14 ar  
     3    2    3 ar  
     4    2   17 1   
     5    3    4 ar  
     6    3   18 1   
     7    4    5 ar  
     8    4   15 1   
     9    5    6 ar  
    10    5   14 ar  
    11    6    7 ar  
    12    6   19 1   
    13    7    8 ar  
    14    7   20 1   
    15    8    9 ar  
    16    8   13 ar  
    17    9   10 ar  
    18    9   16 1   
    19   10   11 ar  
    20   10   21 1   
    21   11   12 ar  
    22   11   22 1   
    23   12   13 ar  
    24   13   14 ar  
    25   15   23 1   
    26   15   24 1   
    27   15   25 1   
    28   16   26 1   
    29   16   27 1   
    30   16   28 1   
@<TRIPOS>SUBSTRUCTURE
     1 DPT         1 TEMP              0 ****  ****    0 ROOT
