@<TRIPOS>MOLECULE
molecule
   39    38     1     0     0
SMALL
bcc


@<TRIPOS>ATOM
      1 CA           0.0000     0.0000     0.0000 c3         1 DPU      -0.184400
      2 C            1.5080     0.0000     0.0000 c          1 DPU       0.890600
      3 OI1          2.1780     0.0000     1.1620 o          1 DPU      -0.854300
      4 OI2          2.1120     0.0010    -1.0460 o          1 DPU      -0.854300
      5 CB          -0.5090     0.0010    -1.4420 c3         1 DPU      -0.062400
      6 CG          -2.0400     0.0000    -1.4420 c3         1 DPU      -0.090400
      7 CD          -2.5500     0.0010    -2.8850 c3         1 DPU      -0.076400
      8 CE          -4.0800     0.0010    -2.8850 c3         1 DPU      -0.110400
      9 CZ          -4.5900     0.0010    -4.3270 c3         1 DPU       0.118700
     10 CH          -6.1140     0.1260    -4.3290 c3         1 DPU       0.060500
     11 CS          -6.6250     0.1270    -5.7710 c3         1 DPU      -0.114100
     12 N1          -4.2020    -1.2510    -4.9820 ns         1 DPU      -0.591900
     13 N2          -6.5040     1.3820    -3.6710 nz         1 DPU      -0.809600
     14 CN1         -4.0760    -1.2980    -6.3230 c          1 DPU       0.784100
     15 O12         -4.2830    -0.3020    -6.9880 o          1 DPU      -0.604000
     16 O2B         -4.8240    -2.0410    -9.1580 o          1 DPU      -0.858833
     17 PB          -3.5680    -2.5040    -8.5270 p5         1 DPU       1.107900
     18 O1B         -3.7190    -2.4470    -6.9250 os         1 DPU      -0.479500
     19 O3B         -2.3530    -1.5520    -8.9860 o          1 DPU      -0.858833
     20 O2A         -3.2640    -4.0180    -8.9850 o          1 DPU      -0.858833
     21 HA1         -0.3610    -0.8850     0.5100 hc         1 DPU       0.021200
     22 HA2         -0.3610     0.8840     0.5110 hc         1 DPU       0.021200
     23 HB1         -0.1480     0.8860    -1.9520 hc         1 DPU       0.056200
     24 HB2         -0.1480    -0.8830    -1.9530 hc         1 DPU       0.056200
     25 HG1         -2.4010     0.8850    -0.9310 hc         1 DPU       0.018700
     26 HG2         -2.4010    -0.8840    -0.9320 hc         1 DPU       0.018700
     27 HD1         -2.1890    -0.8830    -3.3960 hc         1 DPU       0.070200
     28 HD2         -2.1890     0.8860    -3.3940 hc         1 DPU       0.070200
     29 HE1         -4.4410    -0.8840    -2.3740 hc         1 DPU       0.016700
     30 HE2         -4.4420     0.8850    -2.3740 hc         1 DPU       0.016700
     31 HZ          -4.1580     0.8380    -4.8620 h1         1 DPU       0.096700
     32 HH          -6.5460    -0.7100    -3.7930 hx         1 DPU       0.089700
     33 HS1         -5.9960     0.7690    -6.3760 hc         1 DPU       0.087700
     34 HS2         -7.6440     0.4950    -5.7930 hc         1 DPU       0.087700
     35 HS3         -6.5960    -0.8810    -6.1650 hc         1 DPU       0.087700
     36 HN1         -4.0920    -2.0850    -4.4400 hn         1 DPU       0.320500
     37 HN21        -6.7220     1.2020    -2.7110 hn         1 DPU       0.436133
     38 HN22        -5.7470     2.0350    -3.7250 hn         1 DPU       0.436133
     39 H23         -7.3070     1.7640    -4.1310 hn         1 DPU       0.436133
@<TRIPOS>BOND
     1     1     2 1
     2     1     5 1
     3     1    21 1
     4     1    22 1
     5     2     3 1
     6     2     4 1
     7     5     6 1
     8     5    23 1
     9     5    24 1
    10     6     7 1
    11     6    25 1
    12     6    26 1
    13     7     8 1
    14     7    27 1
    15     7    28 1
    16     8     9 1
    17     8    29 1
    18     8    30 1
    19     9    10 1
    20     9    12 1
    21     9    31 1
    22    10    11 1
    23    10    13 1
    24    10    32 1
    25    11    33 1
    26    11    34 1
    27    11    35 1
    28    12    14 1
    29    12    36 1
    30    13    37 1
    31    13    38 1
    32    14    15 2
    33    14    18 1
    34    16    17 1
    35    17    18 1
    36    17    19 1
    37    17    20 1
    38    39    13 1
@<TRIPOS>SUBSTRUCTURE
     1 DPU         1 TEMP              0 ****  ****    0 ROOT
