@<TRIPOS>MOLECULE
DPU
   40    39     1     0     0
SMALL
bcc


@<TRIPOS>ATOM
      1 CA          0.1330    0.7960    0.2490 c3        1 DPU     -0.199400
      2 C           1.0870    0.2020    1.3040 c         1 DPU      0.909600
      3 OI1         1.2510    0.8520    2.3740 o         1 DPU     -0.846800
      4 OI2         1.6630   -0.8930    1.0410 o         1 DPU     -0.846800
      5 CB         -0.6950   -0.2900   -0.3930 c3        1 DPU     -0.065400
      6 CG         -1.5580    0.2450   -1.5170 c3        1 DPU     -0.080400
      7 CD         -2.3800   -0.8640   -2.1410 c3        1 DPU     -0.082400
      8 CE         -3.3800   -0.3070   -3.1330 c3        1 DPU     -0.136400
      9 CZ         -4.0880   -1.4030   -3.9480 c3        1 DPU      0.152500
     10 CH         -5.3690   -0.8070   -4.6200 c3        1 DPU      0.131500
     11 CS         -6.0660   -1.8390   -5.4970 c3        1 DPU     -0.120100
     12 N1         -4.4570   -2.5920   -3.2050 n3        1 DPU     -0.901800
     13 N2         -5.0440    0.4130   -5.4250 n4        1 DPU     -0.858600
     14 CN1        -6.4090    0.8910   -8.2200 c         1 DPU      0.911700
     15 O12        -7.1810    0.8700   -7.2580 o         1 DPU     -0.709500
     16 O2B        -6.5990    0.9740   -9.5380 os        1 DPU     -0.554000
     17 PB         -4.8770    0.8970   -9.9330 p5        1 DPU      1.403800
     18 O1B        -5.0590    0.8140   -8.1580 os        1 DPU     -0.554000
     19 O3B        -4.3890    2.2170  -10.2920 o         1 DPU     -0.729000
     20 O2A        -4.5350   -0.4380  -10.3930 o         1 DPU     -0.729000
     21 HA1        -0.5260    1.5590    0.7320 hc        1 DPU      0.021200
     22 HA2         0.7540    1.3150   -0.5230 hc        1 DPU      0.021200
     23 HB1        -1.3460   -0.7670    0.3850 hc        1 DPU      0.048200
     24 HB2        -0.0040   -1.0870   -0.7780 hc        1 DPU      0.048200
     25 HG1        -0.9090    0.7200   -2.2980 hc        1 DPU      0.030200
     26 HG2        -2.2400    1.0420   -1.1210 hc        1 DPU      0.030200
     27 HD1        -1.6980   -1.5920   -2.6540 hc        1 DPU      0.045200
     28 HD2        -2.9140   -1.4190   -1.3240 hc        1 DPU      0.045200
     29 HE1        -2.8260    0.3740   -3.8330 hc        1 DPU      0.039700
     30 HE2        -4.1380    0.3070   -2.5790 hc        1 DPU      0.039700
     31 HZ         -3.3890   -1.7360   -4.7740 h1        1 DPU      0.074700
     32 HH         -6.0780   -0.4650   -3.8080 hx        1 DPU      0.086700
     33 HS1        -6.8830   -1.3700   -6.1020 hc        1 DPU      0.076700
     34 HS2        -5.3380   -2.3290   -6.1890 hc        1 DPU      0.076700
     35 HS3        -6.5150   -2.6260   -4.8430 hc        1 DPU      0.076700
     36 HN1        -3.6380   -3.1340   -3.0040 hn        1 DPU      0.368300
     37 HN21       -5.9270    0.8470   -5.7590 hn        1 DPU      0.469467
     38 HN22       -4.5050    0.1590   -6.2690 hn        1 DPU      0.469467
     39 H12        -4.9060   -2.3470   -2.3440 hn        1 DPU      0.368300
     40 H23        -4.5140    1.0840   -4.8730 hn        1 DPU      0.469467
@<TRIPOS>BOND
     1    1    2 1   
     2    1    5 1   
     3    1   21 1   
     4    1   22 1   
     5    2    3 1   
     6    2    4 1   
     7    5    6 1   
     8    5   23 1   
     9    5   24 1   
    10    6    7 1   
    11    6   25 1   
    12    6   26 1   
    13    7    8 1   
    14    7   27 1   
    15    7   28 1   
    16    8    9 1   
    17    8   29 1   
    18    8   30 1   
    19    9   10 1   
    20    9   12 1   
    21    9   31 1   
    22   10   11 1   
    23   10   13 1   
    24   10   32 1   
    25   11   33 1   
    26   11   34 1   
    27   11   35 1   
    28   12   36 1   
    29   12   39 1   
    30   13   37 1   
    31   13   38 1   
    32   13   40 1   
    33   14   15 2   
    34   14   16 1   
    35   14   18 1   
    36   16   17 1   
    37   17   18 1   
    38   17   19 1   
    39   17   20 1   
@<TRIPOS>SUBSTRUCTURE
     1 DPU         1 TEMP              0 ****  ****    0 ROOT
