@<TRIPOS>MOLECULE
DPV
   61    60     1     0     0
SMALL
bcc


@<TRIPOS>ATOM
      1 N            0.0000     0.0000     0.0000 n4         1 DPV       0.063200
      2 P            2.0260    -3.8460     0.7890 p5         1 DPV       0.915800
      3 C1           1.9130    -6.3760    -0.0640 c3         1 DPV       0.317400
      4 C2           1.3770    -7.1890    -1.2450 c3         1 DPV      -0.053400
      5 C3           1.7030    -8.6690    -1.0350 c3         1 DPV      -0.025400
      6 C4           1.9790    -1.1750     0.8360 c3         1 DPV       0.289400
      7 C5           1.4690     0.0000     0.0000 c3         1 DPV      -0.040200
      8 C6          -0.4890     0.0000     1.3850 c3         1 DPV       0.010767
      9 C7          -0.4900     1.1990    -0.6940 c3         1 DPV       0.010767
     10 C8          -0.4900    -1.2010    -0.6920 c3         1 DPV       0.010767
     11 C15          1.1680    -9.4810    -2.2150 c3         1 DPV      -0.028400
     12 C16          1.4930   -10.9610    -2.0040 c3         1 DPV      -0.029400
     13 C17          0.9570   -11.7750    -3.1850 c3         1 DPV      -0.029400
     14 C18          1.2830   -13.2540    -2.9750 c3         1 DPV      -0.029400
     15 C19          0.7470   -14.0670    -4.1560 c3         1 DPV      -0.029400
     16 O1P          1.2710    -4.0670     2.1190 o          1 DPV      -0.638500
     17 C20          1.0720   -15.5470    -3.9440 c3         1 DPV      -0.029400
     18 C21          0.5370   -16.3600    -5.1250 c3         1 DPV      -0.030400
     19 C22          0.8620   -17.8400    -4.9150 c3         1 DPV      -0.028400
     20 C23          0.3260   -18.6520    -6.0960 c3         1 DPV       0.005900
     21 O2P          3.5480    -3.9100     1.0450 o          1 DPV      -0.638500
     22 O3P          1.6100    -4.9930    -0.2610 os         1 DPV      -0.513200
     23 O4P          1.6420    -2.4030     0.1880 os         1 DPV      -0.524200
     24 H1           1.4490    -6.7200     0.8520 h1         1 DPV      -0.011800
     25 H1A          2.9870    -6.5030     0.0050 h1         1 DPV      -0.011800
     26 H2           0.3040    -7.0620    -1.3130 hc         1 DPV       0.010200
     27 H2A          1.8410    -6.8440    -2.1610 hc         1 DPV       0.010200
     28 H3           1.2390    -9.0140    -0.1190 hc         1 DPV       0.014200
     29 H3A          2.7770    -8.7960    -0.9670 hc         1 DPV       0.014200
     30 H4           1.5210    -1.1460     1.8170 h1         1 DPV       0.020200
     31 H4A          3.0560    -1.1040     0.9380 h1         1 DPV       0.020200
     32 H5           1.8300    -0.0970    -1.0170 hx         1 DPV       0.064700
     33 H5A          1.8300     0.9290     0.4240 hx         1 DPV       0.064700
     34 H6           0.1520     0.6250     1.9940 hx         1 DPV       0.070478
     35 H6A         -1.5010     0.3870     1.4110 hx         1 DPV       0.070478
     36 H6B         -0.4800    -1.0120     1.7710 hx         1 DPV       0.070478
     37 H7          -0.1540     1.1830    -1.7230 hx         1 DPV       0.070478
     38 H7A         -0.1060     2.0840    -0.2010 hx         1 DPV       0.070478
     39 H7B         -1.5730     1.2130    -0.6680 hx         1 DPV       0.070478
     40 H8           0.1650    -1.4320    -1.5230 hx         1 DPV       0.070478
     41 H8A         -1.4930    -1.0210    -1.0620 hx         1 DPV       0.070478
     42 H8B         -0.5050    -2.0350    -0.0010 hx         1 DPV       0.070478
     43 H15          1.6320    -9.1360    -3.1310 hc         1 DPV       0.011200
     44 H15A         0.0940    -9.3540    -2.2840 hc         1 DPV       0.011200
     45 H16          1.0290   -11.3060    -1.0880 hc         1 DPV       0.014700
     46 H16A         2.5660   -11.0890    -1.9360 hc         1 DPV       0.014700
     47 H17          1.4210   -11.4290    -4.1010 hc         1 DPV       0.012700
     48 H17A        -0.1170   -11.6470    -3.2530 hc         1 DPV       0.012700
     49 H18          0.8190   -13.6000    -2.0590 hc         1 DPV       0.014700
     50 H18A         2.3560   -13.3820    -2.9070 hc         1 DPV       0.014700
     51 H19         -0.3270   -13.9390    -4.2240 hc         1 DPV       0.013700
     52 H19A         1.2110   -13.7220    -5.0720 hc         1 DPV       0.013700
     53 H20          0.6090   -15.8920    -3.0280 hc         1 DPV       0.014700
     54 H20A         2.1460   -15.6740    -3.8760 hc         1 DPV       0.014700
     55 H21         -0.5370   -16.2330    -5.1930 hc         1 DPV       0.014200
     56 H21A         1.0000   -16.0150    -6.0410 hc         1 DPV       0.014200
     57 H22          0.3990   -18.1860    -3.9990 hc         1 DPV       0.011700
     58 H22A         1.9360   -17.9670    -4.8470 hc         1 DPV       0.011700
     59 H23          0.6600   -19.6790    -6.0080 hc         1 DPV      -0.000633
     60 H23A        -0.7570   -18.6230    -6.0920 hc         1 DPV      -0.000633
     61 H23B         0.6960   -18.2300    -7.0220 hc         1 DPV      -0.000633
@<TRIPOS>BOND
     1     1     7 1   
     2     1     8 1   
     3     1     9 1   
     4     1    10 1   
     5     2    16 1   
     6     2    21 1   
     7     2    22 1   
     8     2    23 1   
     9     3     4 1   
    10     3    22 1   
    11     3    24 1   
    12     3    25 1   
    13     4     5 1   
    14     4    26 1   
    15     4    27 1   
    16     5    11 1   
    17     5    28 1   
    18     5    29 1   
    19     6     7 1   
    20     6    23 1   
    21     6    30 1   
    22     6    31 1   
    23     7    32 1   
    24     7    33 1   
    25     8    34 1   
    26     8    35 1   
    27     8    36 1   
    28     9    37 1   
    29     9    38 1   
    30     9    39 1   
    31    10    40 1   
    32    10    41 1   
    33    10    42 1   
    34    11    12 1   
    35    11    43 1   
    36    11    44 1   
    37    12    13 1   
    38    12    45 1   
    39    12    46 1   
    40    13    14 1   
    41    13    47 1   
    42    13    48 1   
    43    14    15 1   
    44    14    49 1   
    45    14    50 1   
    46    15    17 1   
    47    15    51 1   
    48    15    52 1   
    49    17    18 1   
    50    17    53 1   
    51    17    54 1   
    52    18    19 1   
    53    18    55 1   
    54    18    56 1   
    55    19    20 1   
    56    19    57 1   
    57    19    58 1   
    58    20    59 1   
    59    20    60 1   
    60    20    61 1   
@<TRIPOS>SUBSTRUCTURE
     1 DPV         1 TEMP              0 ****  ****    0 ROOT
