@<TRIPOS>MOLECULE
molecule
   55    54     1     0     0
SMALL
bcc


@<TRIPOS>ATOM
      1 C1           0.0000     0.0000     0.0000 c3         1 DPW       0.097433
      2 C2           1.9580     0.0000     1.3850 c3         1 DPW       0.097433
      3 C3           1.9590    -1.1990    -0.6930 c3         1 DPW       0.097433
      4 C4           1.9580     1.2000    -0.6930 c3         1 DPW       0.093800
      5 C5           1.3520     2.4460    -0.0430 c3         1 DPW       0.202400
      6 C10          4.0410     6.1220     9.0860 c3         1 DPW      -0.082400
      7 C11          4.9960     5.7490    10.2210 c3         1 DPW      -0.082400
      8 C6           2.2670     4.7320     4.6250 c3         1 DPW       0.226400
      9 C7           3.2230     4.3610     5.7610 c3         1 DPW      -0.090400
     10 C9           4.1100     5.0550     7.9900 c3         1 DPW      -0.080400
     11 O3           1.7100     5.1550     1.5440 o          1 DPW      -0.799000
     12 P            1.4550     3.8060     2.2540 p5         1 DPW       1.328800
     13 O4          -0.0450     3.6850     2.6080 o          1 DPW      -0.799000
     14 O1           1.8760     2.5980     1.2770 os         1 DPW      -0.612200
     15 N            1.4690     0.0000     0.0000 n4         1 DPW      -0.568800
     16 O2           2.3320     3.7360     3.6030 os         1 DPW      -0.614200
     17 C8           3.1540     5.4270     6.8560 c3         1 DPW      -0.082400
     18 C12          4.9270     6.8160    11.3160 c3         1 DPW      -0.082400
     19 C13          5.8830     6.4440    12.4510 c3         1 DPW      -0.081400
     20 C14          5.8150     7.5100    13.5460 c3         1 DPW      -0.084400
     21 C15          6.7710     7.1380    14.6820 c3         1 DPW      -0.092100
     22 H1          -0.3610    -1.0070     0.1690 hx         1 DPW       0.095589
     23 H1A         -0.3610     0.3570    -0.9570 hx         1 DPW       0.095589
     24 H1B         -0.3610     0.6500     0.7880 hx         1 DPW       0.095589
     25 H2           1.2810     0.5730     2.0070 hx         1 DPW       0.095589
     26 H2A          2.9450     0.4460     1.4190 hx         1 DPW       0.095589
     27 H2B          2.0090    -1.0190     1.7490 hx         1 DPW       0.095589
     28 H3           1.5890    -1.2040    -1.7110 hx         1 DPW       0.095589
     29 H3A          3.0420    -1.1940    -0.7020 hx         1 DPW       0.095589
     30 H3B          1.6060    -2.0840    -0.1770 hx         1 DPW       0.095589
     31 H4           1.6680     1.1580    -1.7350 hx         1 DPW       0.092700
     32 H4A          3.0380     1.2430    -0.6200 hx         1 DPW       0.092700
     33 H5           0.2750     2.3410     0.0050 h1         1 DPW       0.070700
     34 H5A          1.6030     3.3190    -0.6340 h1         1 DPW       0.070700
     35 H10          4.3280     7.0820     8.6730 hc         1 DPW       0.041700
     36 H10A         3.0300     6.1810     9.4690 hc         1 DPW       0.041700
     37 H11          4.7100     4.7900    10.6330 hc         1 DPW       0.039200
     38 H11A         6.0080     5.6900     9.8370 hc         1 DPW       0.039200
     39 H6           2.5530     5.6930     4.2130 h1         1 DPW       0.037200
     40 H6A          1.2560     4.7910     5.0090 h1         1 DPW       0.037200
     41 H7           2.9370     3.4010     6.1730 hc         1 DPW       0.041700
     42 H7A          4.2340     4.3030     5.3770 hc         1 DPW       0.041700
     43 H9           3.8240     4.0950     8.4030 hc         1 DPW       0.038200
     44 H9A          5.1210     4.9970     7.6060 hc         1 DPW       0.038200
     45 H8           2.1430     5.4850     7.2400 hc         1 DPW       0.043200
     46 H8A          3.4400     6.3870     6.4430 hc         1 DPW       0.043200
     47 H12          5.2130     7.7760    10.9030 hc         1 DPW       0.041200
     48 H12A         3.9160     6.8750    11.6990 hc         1 DPW       0.041200
     49 H13          5.5980     5.4840    12.8640 hc         1 DPW       0.039700
     50 H13A         6.8950     6.3850    12.0670 hc         1 DPW       0.039700
     51 H14          6.1000     8.4700    13.1330 hc         1 DPW       0.039700
     52 H14A         4.8030     7.5690    13.9300 hc         1 DPW       0.039700
     53 H15          7.7830     7.0850    14.2990 hc         1 DPW       0.031367
     54 H15A         6.4880     6.1760    15.0910 hc         1 DPW       0.031367
     55 H15B         6.7180     7.8910    15.4590 hc         1 DPW       0.031367
@<TRIPOS>BOND
     1     1    15 1
     2     2    15 1
     3     3    15 1
     4     4     5 1
     5     4    15 1
     6     5    14 1
     7     6     7 1
     8     6    10 1
     9     7    18 1
    10     8     9 1
    11     8    16 1
    12     9    17 1
    13    10    17 1
    14    11    12 1
    15    12    13 1
    16    12    14 1
    17    12    16 1
    18    18    19 1
    19    19    20 1
    20    20    21 1
    21     1    22 1
    22     1    23 1
    23     1    24 1
    24     2    25 1
    25     2    26 1
    26     2    27 1
    27     3    28 1
    28     3    29 1
    29     3    30 1
    30     4    31 1
    31     4    32 1
    32     5    33 1
    33     5    34 1
    34     6    35 1
    35     6    36 1
    36     7    37 1
    37     7    38 1
    38     8    39 1
    39     8    40 1
    40     9    41 1
    41     9    42 1
    42    10    43 1
    43    10    44 1
    44    17    45 1
    45    17    46 1
    46    18    47 1
    47    18    48 1
    48    19    49 1
    49    19    50 1
    50    20    51 1
    51    20    52 1
    52    21    53 1
    53    21    54 1
    54    21    55 1
@<TRIPOS>SUBSTRUCTURE
     1 DPW         1 TEMP              0 ****  ****    0 ROOT
