@<TRIPOS>MOLECULE
molecule
   43    43     1     0     0
SMALL
bcc


@<TRIPOS>ATOM
      1 C4           0.0000     0.0000     0.0000 c2         1 DPX       0.162800
      2 C5           1.3240     0.0000     0.0000 c2         1 DPX      -0.106600
      3 O21          3.3490    -3.9210     2.6840 o          1 DPX      -0.796500
      4 O22          5.2240    -2.7640     4.1180 os         1 DPX      -0.649800
      5 O26          6.8580    -4.3090     5.4790 o          1 DPX      -0.798833
      6 O25          6.9070    -4.2400     2.9570 o          1 DPX      -0.798833
      7 O24          4.9330    -5.3750     4.0420 o          1 DPX      -0.798833
      8 P23          6.0000    -4.1730     4.1240 p5         1 DPX       1.195900
      9 P19          4.3910    -2.6940     2.7440 p5         1 DPX       1.255800
     10 O20          5.3230    -2.7850     1.5980 o          1 DPX      -0.796500
     11 O18          3.5860    -1.3040     2.6710 os         1 DPX      -0.557200
     12 C17          2.8690    -1.3030     1.4360 c3         1 DPX       0.158400
     13 C16          2.0790     0.0000     1.3030 c3         1 DPX       0.199300
     14 C15         -0.7530     0.2790     1.2750 c3         1 DPX      -0.057900
     15 N3          -0.7010    -0.2590    -1.1850 nu         1 DPX      -0.827000
     16 O27          2.9790     1.1090     1.3340 oh         1 DPX      -0.602800
     17 S1           2.2040     0.0020    -1.5260 sh         1 DPX      -0.365400
     18 C6          -2.1570    -0.0980    -1.2250 c3         1 DPX       0.312100
     19 C7          -2.6480    -0.3140    -2.6320 ca         1 DPX      -0.492900
     20 C8          -2.6010     0.7160    -3.5730 ca         1 DPX       0.733200
     21 N9          -3.0390     0.4830    -4.8070 nb         1 DPX      -0.839000
     22 C10         -3.5210    -0.6990    -5.1360 ca         1 DPX       0.604300
     23 N11         -3.5850    -1.6900    -4.2710 nb         1 DPX      -0.773000
     24 C12         -3.1620    -1.5350    -3.0240 ca         1 DPX       0.448200
     25 N13         -2.0950     1.9580    -3.2300 nv         1 DPX      -1.015500
     26 C14         -4.0150    -0.9210    -6.5430 c3         1 DPX      -0.095400
     27 H171         2.1860    -2.1440     1.4140 h1         1 DPX       0.068700
     28 H172         3.5690    -1.3870     0.6130 h1         1 DPX       0.068700
     29 H16          1.3780     0.0820     2.1250 h1         1 DPX       0.019700
     30 H151        -0.3200     1.1410     1.7690 hc         1 DPX       0.044700
     31 H152        -0.6870    -0.5820     1.9290 hc         1 DPX       0.044700
     32 H153        -1.7920     0.4790     1.0450 hc         1 DPX       0.044700
     33 HN3         -0.2120    -0.5850    -1.9950 hn         1 DPX       0.465800
     34 HOR          2.7910     1.6450     2.0860 ho         1 DPX       0.378000
     35 HS1          2.7230     1.2050    -1.7370 hs         1 DPX       0.174800
     36 H61         -2.6180    -0.8250    -0.5660 h1         1 DPX       0.015700
     37 H62         -2.4190     0.9010    -0.9000 h1         1 DPX       0.015700
     38 H12         -3.2190    -2.3570    -2.3200 h4         1 DPX       0.014100
     39 HND1        -2.0570     2.6890    -3.9140 hn         1 DPX       0.429800
     40 HND2        -1.8010     2.1370    -2.2910 hn         1 DPX       0.429800
     41 H141        -5.0590    -1.2070    -6.5180 hc         1 DPX       0.030033
     42 H142        -3.4360    -1.7100    -7.0080 hc         1 DPX       0.030033
     43 H143        -3.9040    -0.0070    -7.1130 hc         1 DPX       0.030033
@<TRIPOS>BOND
     1     1     2 2
     2     1    14 1
     3     1    15 1
     4     2    13 1
     5     2    17 1
     6     3     9 1
     7     4     8 1
     8     4     9 1
     9     5     8 1
    10     6     8 1
    11     7     8 1
    12     9    10 1
    13     9    11 1
    14    11    12 1
    15    12    13 1
    16    12    27 1
    17    12    28 1
    18    13    16 1
    19    13    29 1
    20    14    30 1
    21    14    31 1
    22    14    32 1
    23    15    18 1
    24    15    33 1
    25    16    34 1
    26    17    35 1
    27    18    19 1
    28    18    36 1
    29    18    37 1
    30    19    20 ar
    31    19    24 ar
    32    20    21 ar
    33    20    25 1
    34    21    22 ar
    35    22    23 ar
    36    22    26 1
    37    23    24 ar
    38    24    38 1
    39    25    39 1
    40    25    40 1
    41    26    41 1
    42    26    42 1
    43    26    43 1
@<TRIPOS>SUBSTRUCTURE
     1 DPX         1 TEMP              0 ****  ****    0 ROOT
