@<TRIPOS>MOLECULE
DPZ
   22    23     1     0     0
SMALL
bcc


@<TRIPOS>ATOM
      1 N1         -0.0870    0.2040    0.0300 n         1 DPZ     -0.400500
      2 C2          1.3320    0.0530   -0.0210 c         1 DPZ      0.703100
      3 O3          1.8320   -0.0050   -1.1630 o         1 DPZ     -0.650500
      4 C4          2.0770    0.0540    1.2430 ca        1 DPZ     -0.267600
      5 C5          3.5000    0.1210    1.2950 ca        1 DPZ      0.302600
      6 C6          4.1410    0.0430    2.5630 ca        1 DPZ     -0.302000
      7 C7          3.4080   -0.0540    3.7530 ca        1 DPZ      0.234600
      8 C8          1.9840   -0.0970    3.6830 ca        1 DPZ     -0.207000
      9 C9          1.3600   -0.0400    2.4540 ca        1 DPZ     -0.018600
     10 C10        -0.1280   -0.0590    2.4230 c         1 DPZ      0.674100
     11 O11        -0.8380   -0.0580    3.4420 o         1 DPZ     -0.601500
     12 N12        -0.7660   -0.1770    1.1600 n         1 DPZ     -0.400500
     13 N13         4.0400   -0.0470    4.9850 nh        1 DPZ     -0.842200
     14 N14         4.2670    0.2870    0.1740 nh        1 DPZ     -0.863200
     15 H1         -0.5410   -0.1890   -0.7860 hn        1 DPZ      0.308500
     16 H6          5.2410    0.0790    2.6050 ha        1 DPZ      0.137000
     17 H8          1.3760   -0.1650    4.5990 ha        1 DPZ      0.163000
     18 H12        -1.6980    0.2180    1.1520 hn        1 DPZ      0.311500
     19 H131        5.0070   -0.2690    4.9960 hn        1 DPZ      0.414300
     20 H132        3.5100   -0.3630    5.7620 hn        1 DPZ      0.414300
     21 H141        3.8500    0.2470   -0.7270 hn        1 DPZ      0.445300
     22 H142        5.2500    0.2130    0.2480 hn        1 DPZ      0.445300
@<TRIPOS>BOND
     1    1    2 1   
     2    1   12 1   
     3    1   15 1   
     4    2    3 2   
     5    2    4 1   
     6    4    5 ar  
     7    4    9 ar  
     8    5    6 ar  
     9    5   14 1   
    10    6    7 ar  
    11    6   16 1   
    12    7    8 ar  
    13    7   13 1   
    14    8    9 ar  
    15    8   17 1   
    16    9   10 1   
    17   10   11 2   
    18   10   12 1   
    19   12   18 1   
    20   13   19 1   
    21   13   20 1   
    22   14   21 1   
    23   14   22 1   
@<TRIPOS>SUBSTRUCTURE
     1 DPZ         1 TEMP              0 ****  ****    0 ROOT
