@<TRIPOS>MOLECULE
DQ1
   58    60     1     0     0
SMALL
bcc


@<TRIPOS>ATOM
      1 C1           0.0000     0.0000     0.0000 ca         1 DQ1       0.603200
      2 N1           1.3240     0.0000     0.0000 nb         1 DQ1      -0.694000
      3 O1         -10.0930    -2.3350     3.0530 os         1 DQ1      -0.294900
      4 C2          -0.6730     0.0060     1.2480 ca         1 DQ1      -0.344600
      5 N2          -0.7070     0.0000    -1.1840 nv         1 DQ1      -0.655500
      6 O2          -8.3200    -4.4380     2.9530 os         1 DQ1      -0.286900
      7 C3          -2.6640     0.0170     2.5650 ca         1 DQ1      -0.157300
      8 O3          -8.8930    -9.3500     3.0200 o          1 DQ1      -0.583000
      9 C4          -4.1680     0.0230     2.6620 c3         1 DQ1       0.233100
     10 N4          -4.6600    -1.3560     2.6970 nu         1 DQ1      -0.436600
     11 O4          -6.9650   -10.4230     2.9020 os         1 DQ1      -0.417900
     12 C5         -10.9550    -1.1970     3.1000 c3         1 DQ1       0.241700
     13 N5           1.4420    -0.0010     2.3230 nb         1 DQ1      -0.717000
     14 C6          -7.3440    -5.4800     2.8960 c3         1 DQ1       0.199400
     15 C7          -8.0440    -6.8400     2.9500 c3         1 DQ1      -0.027400
     16 C8          -6.9990    -7.9540     2.8890 c3         1 DQ1      -0.065400
     17 C9          -7.6880    -9.2940     2.9420 c          1 DQ1       0.692100
     18 C10         -6.7110   -12.8450     2.9010 c3         1 DQ1      -0.004100
     19 C11         -7.6970   -11.6770     2.9570 c3         1 DQ1       0.227400
     20 C12          2.0180     0.0000     1.1350 ca         1 DQ1       0.720900
     21 C13         -6.0340    -1.6060     2.7870 ca         1 DQ1       0.073600
     22 C14         -6.5000    -2.9130     2.8260 ca         1 DQ1      -0.264000
     23 C15         -7.8600    -3.1590     2.9150 ca         1 DQ1       0.168100
     24 C16         -8.7560    -2.0960     2.9650 ca         1 DQ1       0.061100
     25 C17         -8.2880    -0.7930     2.9270 ca         1 DQ1      -0.124000
     26 C18         -6.9300    -0.5480     2.8430 ca         1 DQ1      -0.196000
     27 C19         -1.9000     0.0100     3.7290 ca         1 DQ1      -0.050000
     28 C20          0.1050     0.0050     2.4300 ca         1 DQ1       0.466600
     29 C21         -0.5380     0.0050     3.6750 ca         1 DQ1      -0.176300
     30 C22         -2.0690     0.0120     1.3370 ca         1 DQ1      -0.018000
     31 HN2         -0.9380    -0.8660    -1.6280 hn         1 DQ1       0.283800
     32 HN2A        -0.9500     0.8670    -1.6210 hn         1 DQ1       0.283800
     33 HN3          3.9410    -0.0050     1.9090 hn         1 DQ1       0.275300
     34 HN3A         3.8560    -0.0030     0.1780 hn         1 DQ1       0.275300
     35 H4          -4.4700     0.5370     3.5670 h1         1 DQ1       0.015200
     36 H4A         -4.5840     0.5330     1.8020 h1         1 DQ1       0.015200
     37 HN4         -4.0120    -2.1190     2.6900 hn         1 DQ1       0.294800
     38 H5         -10.7280    -0.6090     3.9820 h1         1 DQ1      -0.005967
     39 H5A        -10.8040    -0.5920     2.2140 h1         1 DQ1      -0.005967
     40 H5B        -11.9860    -1.5260     3.1410 h1         1 DQ1      -0.005967
     41 H6          -6.7830    -5.3990     1.9730 h1         1 DQ1      -0.001800
     42 H6A         -6.6680    -5.3880     3.7380 h1         1 DQ1      -0.001800
     43 H7          -8.7200    -6.9320     2.1080 hc         1 DQ1       0.040700
     44 H7A         -8.6050    -6.9210     3.8730 hc         1 DQ1       0.040700
     45 H8          -6.3230    -7.8620     3.7300 hc         1 DQ1       0.034700
     46 H8A         -6.4380    -7.8730     1.9650 hc         1 DQ1       0.034700
     47 H10         -7.2390   -13.7730     3.0860 hc         1 DQ1       0.010700
     48 H10A        -5.9460   -12.7080     3.6570 hc         1 DQ1       0.010700
     49 H10B        -6.2490   -12.8810     1.9220 hc         1 DQ1       0.010700
     50 H11         -8.2620   -11.7250     3.8800 h1         1 DQ1       0.009700
     51 H11A        -8.3760   -11.7360     2.1150 h1         1 DQ1       0.009700
     52 H14         -5.7980    -3.7380     2.8480 ha         1 DQ1       0.125000
     53 H17         -8.9860     0.0350     2.9710 ha         1 DQ1       0.117000
     54 H18         -6.5660     0.4720     2.8130 ha         1 DQ1       0.115000
     55 H19         -2.3960     0.0090     4.6920 ha         1 DQ1       0.107000
     56 H21          0.0430     0.0000     4.5890 ha         1 DQ1       0.122000
     57 H22         -2.6680     0.1430     0.4440 ha         1 DQ1       0.114000
     58 N3           3.3990    -0.0010     1.0680 nv         1 DQ1      -0.495500
@<TRIPOS>BOND
     1     1     2 ar  
     2     1     4 ar  
     3     1     5 1   
     4     2    20 ar  
     5     3    12 1   
     6     3    24 1   
     7     4    28 ar  
     8     4    30 ar  
     9     5    31 1   
    10     5    32 1   
    11     6    14 1   
    12     6    23 1   
    13     7     9 1   
    14     7    27 ar  
    15     7    30 ar  
    16     8    17 2   
    17     9    10 1   
    18     9    35 1   
    19     9    36 1   
    20    10    21 1   
    21    10    37 1   
    22    11    17 1   
    23    11    19 1   
    24    12    38 1   
    25    12    39 1   
    26    12    40 1   
    27    13    20 ar  
    28    13    28 ar  
    29    14    15 1   
    30    14    41 1   
    31    14    42 1   
    32    15    16 1   
    33    15    43 1   
    34    15    44 1   
    35    16    17 1   
    36    16    45 1   
    37    16    46 1   
    38    18    19 1   
    39    18    47 1   
    40    18    48 1   
    41    18    49 1   
    42    19    50 1   
    43    19    51 1   
    44    20    58 1   
    45    21    22 ar  
    46    21    26 ar  
    47    22    23 ar  
    48    22    52 1   
    49    23    24 ar  
    50    24    25 ar  
    51    25    26 ar  
    52    25    53 1   
    53    26    54 1   
    54    27    29 ar  
    55    27    55 1   
    56    28    29 ar  
    57    29    56 1   
    58    30    57 1   
    59    33    58 1   
    60    34    58 1   
@<TRIPOS>SUBSTRUCTURE
     1 DQ1         1 TEMP              0 ****  ****    0 ROOT
