@<TRIPOS>MOLECULE
molecule
   58    60     1     0     0
SMALL
bcc


@<TRIPOS>ATOM
      1 C1           0.0000     0.0000     0.0000 ca         1 DQ1       0.784200
      2 N1           1.3240     0.0000     0.0000 nb         1 DQ1      -0.819000
      3 O1         -10.0930    -2.3350     3.0530 os         1 DQ1      -0.316900
      4 C2          -0.6730     0.0060     1.2480 ca         1 DQ1      -0.349600
      5 N2          -0.7070     0.0000    -1.1840 nv         1 DQ1      -1.082500
      6 O2          -8.3200    -4.4380     2.9530 os         1 DQ1      -0.308900
      7 C3          -2.6640     0.0170     2.5650 ca         1 DQ1      -0.153300
      8 O3          -8.8930    -9.3500     3.0200 o          1 DQ1      -0.546000
      9 C4          -4.1680     0.0230     2.6620 c3         1 DQ1       0.291100
     10 N4          -4.6600    -1.3560     2.6970 nu         1 DQ1      -0.828600
     11 O4          -6.9650   -10.4230     2.9020 os         1 DQ1      -0.433900
     12 C5         -10.9550    -1.1970     3.1000 c3         1 DQ1       0.129700
     13 N5           1.4420    -0.0010     2.3230 nb         1 DQ1      -0.815000
     14 C6          -7.3440    -5.4800     2.8960 c3         1 DQ1       0.136400
     15 C7          -8.0440    -6.8400     2.9500 c3         1 DQ1      -0.073400
     16 C8          -6.9990    -7.9540     2.8890 c3         1 DQ1      -0.125400
     17 C9          -7.6880    -9.2940     2.9420 c          1 DQ1       0.632100
     18 C10         -6.7110   -12.8450     2.9010 c3         1 DQ1      -0.096100
     19 C11         -7.6970   -11.6770     2.9570 c3         1 DQ1       0.146400
     20 C12          2.0180     0.0000     1.1350 ca         1 DQ1       0.962900
     21 C13         -6.0340    -1.6060     2.7870 ca         1 DQ1       0.206600
     22 C14         -6.5000    -2.9130     2.8260 ca         1 DQ1      -0.271000
     23 C15         -7.8600    -3.1590     2.9150 ca         1 DQ1       0.163100
     24 C16         -8.7560    -2.0960     2.9650 ca         1 DQ1       0.061100
     25 C17         -8.2880    -0.7930     2.9270 ca         1 DQ1      -0.142000
     26 C18         -6.9300    -0.5480     2.8430 ca         1 DQ1      -0.212000
     27 C19         -1.9000     0.0100     3.7290 ca         1 DQ1      -0.078000
     28 C20          0.1050     0.0050     2.4300 ca         1 DQ1       0.503600
     29 C21         -0.5380     0.0050     3.6750 ca         1 DQ1      -0.200300
     30 C22         -2.0690     0.0120     1.3370 ca         1 DQ1      -0.044000
     31 HN2         -0.9380    -0.8660    -1.6280 hn         1 DQ1       0.445300
     32 HN2A        -0.9500     0.8670    -1.6210 hn         1 DQ1       0.445300
     33 HN3          3.9410    -0.0050     1.9090 hn         1 DQ1       0.450800
     34 HN3A         3.8560    -0.0030     0.1780 hn         1 DQ1       0.450800
     35 H4          -4.4700     0.5370     3.5670 h1         1 DQ1       0.042700
     36 H4A         -4.5840     0.5330     1.8020 h1         1 DQ1       0.042700
     37 HN4         -4.0120    -2.1190     2.6900 hn         1 DQ1       0.440800
     38 H5         -10.7280    -0.6090     3.9820 h1         1 DQ1       0.037033
     39 H5A        -10.8040    -0.5920     2.2140 h1         1 DQ1       0.037033
     40 H5B        -11.9860    -1.5260     3.1410 h1         1 DQ1       0.037033
     41 H6          -6.7830    -5.3990     1.9730 h1         1 DQ1       0.032200
     42 H6A         -6.6680    -5.3880     3.7380 h1         1 DQ1       0.032200
     43 H7          -8.7200    -6.9320     2.1080 hc         1 DQ1       0.074700
     44 H7A         -8.6050    -6.9210     3.8730 hc         1 DQ1       0.074700
     45 H8          -6.3230    -7.8620     3.7300 hc         1 DQ1       0.070700
     46 H8A         -6.4380    -7.8730     1.9650 hc         1 DQ1       0.070700
     47 H10         -7.2390   -13.7730     3.0860 hc         1 DQ1       0.047700
     48 H10A        -5.9460   -12.7080     3.6570 hc         1 DQ1       0.047700
     49 H10B        -6.2490   -12.8810     1.9220 hc         1 DQ1       0.047700
     50 H11         -8.2620   -11.7250     3.8800 h1         1 DQ1       0.049700
     51 H11A        -8.3760   -11.7360     2.1150 h1         1 DQ1       0.049700
     52 H14         -5.7980    -3.7380     2.8480 ha         1 DQ1       0.137000
     53 H17         -8.9860     0.0350     2.9710 ha         1 DQ1       0.139000
     54 H18         -6.5660     0.4720     2.8130 ha         1 DQ1       0.132000
     55 H19         -2.3960     0.0090     4.6920 ha         1 DQ1       0.137000
     56 H21          0.0430     0.0000     4.5890 ha         1 DQ1       0.152000
     57 H22         -2.6680     0.1430     0.4440 ha         1 DQ1       0.143000
     58 N3           3.3990    -0.0010     1.0680 nv         1 DQ1      -0.987500
@<TRIPOS>BOND
     1     4     1 ar
     2     2     1 ar
     3     1     5 1
     4    20     2 ar
     5    24     3 1
     6     3    12 1
     7    28     4 ar
     8     4    30 ar
     9     5    31 1
    10     5    32 1
    11    14     6 1
    12     6    23 1
    13    27     7 ar
    14     7     9 1
    15     7    30 ar
    16    58    20 1
    17    58    33 1
    18    58    34 1
    19    17     8 2
    20    10     9 1
    21     9    35 1
    22     9    36 1
    23    10    21 1
    24    10    37 1
    25    11    19 1
    26    11    17 1
    27    12    38 1
    28    12    39 1
    29    12    40 1
    30    13    28 ar
    31    13    20 ar
    32    15    14 1
    33    14    41 1
    34    14    42 1
    35    15    16 1
    36    15    43 1
    37    15    44 1
    38    17    16 1
    39    16    45 1
    40    16    46 1
    41    18    19 1
    42    18    47 1
    43    18    48 1
    44    18    49 1
    45    19    50 1
    46    19    51 1
    47    22    21 ar
    48    21    26 ar
    49    22    23 ar
    50    22    52 1
    51    23    24 ar
    52    24    25 ar
    53    26    25 ar
    54    25    53 1
    55    26    54 1
    56    29    27 ar
    57    27    55 1
    58    29    28 ar
    59    29    56 1
    60    30    57 1
@<TRIPOS>SUBSTRUCTURE
     1 DQ1         1 TEMP              0 ****  ****    0 ROOT
