@<TRIPOS>MOLECULE
DQ2
   54    56     1     0     0
SMALL
bcc


@<TRIPOS>ATOM
      1 C2           0.0000     0.0000     0.0000 c3         1 DQ2       0.056000
      2 C3          -1.8140    -0.0000    -1.6270 c          1 DQ2       0.582100
      3 C4          -2.3160    -0.0010    -3.0480 c3         1 DQ2      -0.072400
      4 C5          -3.8460    -0.0010    -3.0490 c3         1 DQ2       0.108700
      5 C6          -6.1870    -0.0010    -4.4640 cc         1 DQ2       0.236700
      6 C7          -8.1040     0.0110    -3.4310 ca         1 DQ2      -0.247200
      7 N8          -3.4830    -2.0500    -8.5560 n2         1 DQ2      -0.319200
      8 N9          -2.9310    -2.5200    -9.4150 n1         1 DQ2       0.816000
      9 C10         -8.3720     0.0070    -4.8090 ca         1 DQ2       0.299800
     10 C11         -6.9170    -0.0060    -6.8860 c3         1 DQ2       0.152800
     11 C12         -5.3260    -0.4430    -8.5100 c3         1 DQ2       0.138100
     12 C14         -5.6860     1.0470    -8.6690 c3         1 DQ2       0.140100
     13 C1           1.5300     0.0000     0.0000 c3         1 DQ2      -0.067200
     14 C13         -3.8080    -0.6220    -8.5880 c3         1 DQ2       0.226800
     15 C15         -6.4550     1.3910    -7.3700 c3         1 DQ2       0.131100
     16 C8          -9.1910     0.0190    -2.5440 ca         1 DQ2       0.596200
     17 C9         -10.6240     0.0170    -4.3530 ca         1 DQ2       0.723900
     18 N1           2.0190     0.0000     1.3840 nz         1 DQ2       0.100400
     19 N10         -2.3790    -2.9720   -10.2820 n2         1 DQ2      -0.411400
     20 N2          -0.4890    -0.0010    -1.3810 ns         1 DQ2      -0.217900
     21 N3          -6.7560     0.0060    -3.2830 nd         1 DQ2      -0.468100
     22 N4          -8.9880     0.0230    -1.1730 nv         1 DQ2      -0.460500
     23 N5         -10.4220     0.0210    -3.0480 nb         1 DQ2      -0.723000
     24 N6          -9.6360     0.0100    -5.2220 nb         1 DQ2      -0.686000
     25 N7          -7.1490    -0.0010    -5.4380 na         1 DQ2       0.236000
     26 O1          -2.6020     0.0000    -0.7060 o          1 DQ2      -0.597100
     27 O2          -5.8060    -0.8640    -7.2220 os         1 DQ2      -0.380600
     28 O3          -6.5220     1.2410    -9.8120 oh         1 DQ2      -0.530800
     29 O4          -7.5770     2.2320    -7.6490 oh         1 DQ2      -0.524800
     30 S1          -4.4500    -0.0000    -4.7540 ss         1 DQ2      -0.335300
     31 H1          -0.3610    -0.8840     0.5110 h1         1 DQ2       0.043200
     32 H2          -0.3610     0.8850     0.5100 h1         1 DQ2       0.043200
     33 H3          -1.9550     0.8840    -3.5590 hc         1 DQ2       0.036200
     34 H4          -1.9550    -0.8850    -3.5580 hc         1 DQ2       0.036200
     35 H5          -4.2080    -0.8850    -2.5380 h1         1 DQ2       0.072700
     36 H6          -4.2080     0.8840    -2.5380 h1         1 DQ2       0.072700
     37 H7          -7.8080    -0.3150    -7.4190 h2         1 DQ2       0.091700
     38 H8          -5.8100    -1.0210    -9.2880 h1         1 DQ2       0.050700
     39 H9          -4.7870     1.6460    -8.7440 h1         1 DQ2       0.008700
     40 H10          1.8910     0.8850    -0.5110 hx         1 DQ2       0.086200
     41 H11          1.8910    -0.8850    -0.5110 hx         1 DQ2       0.086200
     42 H12         -3.3420    -0.1270    -7.7440 h1         1 DQ2       0.049200
     43 H13         -3.4390    -0.1880    -9.5090 h1         1 DQ2       0.049200
     44 H14         -5.7940     1.8490    -6.6440 h1         1 DQ2       0.037700
     45 H15        -11.6420     0.0200    -4.7230 h5         1 DQ2       0.008100
     46 H16          1.6840    -0.8160     1.8570 hn         1 DQ2       0.228467
     47 H17          1.6860     0.8180     1.8560 hn         1 DQ2       0.228467
     48 H19         -2.1150    -2.4010   -11.0610 hn         1 DQ2       0.494400
     49 H20          0.1620    -0.0020    -2.1420 hn         1 DQ2       0.183500
     50 H21         -9.7720     0.0230    -0.5510 hn         1 DQ2       0.280800
     51 H22         -8.0570     0.0290    -0.8050 hn         1 DQ2       0.280800
     52 H23         -6.0720     1.7770   -10.4430 ho         1 DQ2       0.399000
     53 H24         -7.4030     3.1030    -7.3340 ho         1 DQ2       0.402000
     54 H131         3.0200    -0.0120     1.3840 hn         1 DQ2       0.228467
@<TRIPOS>BOND
     1     1    13 1   
     2     1    20 1   
     3     1    31 1   
     4     1    32 1   
     5     2     3 1   
     6     2    20 1   
     7     2    26 2   
     8     3     4 1   
     9     3    33 1   
    10     3    34 1   
    11     4    30 1   
    12     4    35 1   
    13     4    36 1   
    14     5    21 2   
    15     5    25 1   
    16     5    30 1   
    17     6     9 ar  
    18     6    16 ar  
    19     6    21 1   
    20     7     8 2   
    21     7    14 1   
    22     8    19 2   
    23     9    24 ar  
    24     9    25 1   
    25    10    15 1   
    26    10    25 1   
    27    10    27 1   
    28    10    37 1   
    29    11    12 1   
    30    11    14 1   
    31    11    27 1   
    32    11    38 1   
    33    12    15 1   
    34    12    28 1   
    35    12    39 1   
    36    13    18 1   
    37    13    40 1   
    38    13    41 1   
    39    14    42 1   
    40    14    43 1   
    41    15    29 1   
    42    15    44 1   
    43    16    22 1   
    44    16    23 ar  
    45    17    23 ar  
    46    17    24 ar  
    47    17    45 1   
    48    18    46 1   
    49    18    47 1   
    50    18    54 1   
    51    19    48 1   
    52    20    49 1   
    53    22    50 1   
    54    22    51 1   
    55    28    52 1   
    56    29    53 1   
@<TRIPOS>SUBSTRUCTURE
     1 DQ2         1 TEMP              0 ****  ****    0 ROOT
