@<TRIPOS>MOLECULE
molecule
   54    56     1     0     0
SMALL
bcc


@<TRIPOS>ATOM
      1 C2           0.0000     0.0000     0.0000 c3         1 DQ2       0.096000
      2 C3          -1.8140    -0.0000    -1.6270 c          1 DQ2       0.668100
      3 C4          -2.3160    -0.0010    -3.0480 c3         1 DQ2      -0.143400
      4 C5          -3.8460    -0.0010    -3.0490 c3         1 DQ2       0.023700
      5 C6          -6.1870    -0.0010    -4.4640 cc         1 DQ2       0.434700
      6 C7          -8.1040     0.0110    -3.4310 ca         1 DQ2      -0.163200
      7 N8          -3.4830    -2.0500    -8.5560 n2         1 DQ2      -0.226200
      8 N9          -2.9310    -2.5200    -9.4150 n1         1 DQ2       0.448000
      9 C10         -8.3720     0.0070    -4.8090 ca         1 DQ2       0.472800
     10 C11         -6.9170    -0.0060    -6.8860 c3         1 DQ2       0.263800
     11 C12         -5.3260    -0.4430    -8.5100 c3         1 DQ2       0.107100
     12 C14         -5.6860     1.0470    -8.6690 c3         1 DQ2       0.096100
     13 C1           1.5300     0.0000     0.0000 c3         1 DQ2       0.073800
     14 C13         -3.8080    -0.6220    -8.5880 c3         1 DQ2       0.209800
     15 C15         -6.4550     1.3910    -7.3700 c3         1 DQ2       0.101100
     16 C8          -9.1910     0.0190    -2.5440 ca         1 DQ2       0.792200
     17 C9         -10.6240     0.0170    -4.3530 ca         1 DQ2       0.733900
     18 N1           2.0190     0.0000     1.3840 nz         1 DQ2      -0.805600
     19 N10         -2.3800    -3.0070   -10.2640 n2         1 DQ2      -0.417400
     20 N2          -0.4890    -0.0010    -1.3810 ns         1 DQ2      -0.598900
     21 N3          -6.7560     0.0060    -3.2830 nd         1 DQ2      -0.557100
     22 N4          -8.9880     0.0230    -1.1730 nv         1 DQ2      -1.065500
     23 N5         -10.4220     0.0210    -3.0480 nb         1 DQ2      -0.754000
     24 N6          -9.6360     0.0100    -5.2220 nb         1 DQ2      -0.756000
     25 N7          -7.1490    -0.0010    -5.4380 na         1 DQ2      -0.244000
     26 O1          -2.6020     0.0000    -0.7060 o          1 DQ2      -0.558100
     27 O2          -5.8060    -0.8640    -7.2220 os         1 DQ2      -0.396600
     28 O3          -6.5220     1.2410    -9.8120 oh         1 DQ2      -0.547800
     29 O4          -7.5770     2.2320    -7.6490 oh         1 DQ2      -0.540800
     30 S1          -4.4500    -0.0000    -4.7540 ss         1 DQ2      -0.233300
     31 H1          -0.3610     0.8850     0.5100 h1         1 DQ2       0.077200
     32 H2          -0.3610    -0.8840     0.5110 h1         1 DQ2       0.077200
     33 H3          -1.9550     0.8840    -3.5590 hc         1 DQ2       0.069700
     34 H4          -1.9550    -0.8850    -3.5580 hc         1 DQ2       0.069700
     35 H5          -4.2080    -0.8850    -2.5380 h1         1 DQ2       0.106700
     36 H6          -4.2080     0.8840    -2.5380 h1         1 DQ2       0.106700
     37 H7          -7.8080    -0.3150    -7.4190 h2         1 DQ2       0.138700
     38 H8          -5.8100    -1.0210    -9.2880 h1         1 DQ2       0.099700
     39 H9          -4.7870     1.6460    -8.7440 h1         1 DQ2       0.044700
     40 H10          1.8910     0.8850    -0.5110 hx         1 DQ2       0.115200
     41 H11          1.8910    -0.8840    -0.5110 hx         1 DQ2       0.115200
     42 H12         -3.3420    -0.1270    -7.7440 h1         1 DQ2       0.105700
     43 H13         -3.4390    -0.1880    -9.5090 h1         1 DQ2       0.105700
     44 H14         -5.7940     1.8490    -6.6440 h1         1 DQ2       0.071700
     45 H15        -11.6370     0.0200    -4.7380 h5         1 DQ2       0.080100
     46 H16          3.0200    -0.0120     1.3850 hn         1 DQ2       0.465800
     47 H17          1.6950     0.8230     1.8530 hn         1 DQ2       0.465800
     48 H19         -2.1020    -2.4640   -11.0580 hn         1 DQ2       0.639400
     49 H20          0.1620    -0.0010    -2.1420 hn         1 DQ2       0.321500
     50 H21         -8.7500    -0.8260    -0.7000 hn         1 DQ2       0.451800
     51 H22         -9.1170     0.8670    -0.6510 hn         1 DQ2       0.451800
     52 H23         -6.1050     1.8390   -10.4090 ho         1 DQ2       0.421000
     53 H24         -7.3850     3.1130    -7.3760 ho         1 DQ2       0.422000
     54 H131         1.6670    -0.8060     1.8630 hn         1 DQ2       0.465800
@<TRIPOS>BOND
     1    19     8 2
     2     8     7 2
     3    22    16 1
     4     7    14 1
     5    21     6 1
     6    21     5 2
     7    16     6 ar
     8    16    23 ar
     9     6     9 ar
    10    30     5 1
    11    30     4 1
    12    23    17 ar
    13     5    25 1
    14    27    10 1
    15    27    11 1
    16     9    25 1
    17     9    24 ar
    18    25    10 1
    19    17    24 ar
    20    26     2 2
    21    10    15 1
    22    14    11 1
    23    11    12 1
    24     3     4 1
    25     3     2 1
    26     2    20 1
    27    18    13 1
    28    15    12 1
    29    15    29 1
    30    12    28 1
    31    20     1 1
    32     1    13 1
    33     1    31 1
    34     1    32 1
    35     3    33 1
    36     3    34 1
    37     4    35 1
    38     4    36 1
    39    10    37 1
    40    11    38 1
    41    12    39 1
    42    13    40 1
    43    13    41 1
    44    14    42 1
    45    14    43 1
    46    15    44 1
    47    17    45 1
    48    18    46 1
    49    18    47 1
    50    19    48 1
    51    20    49 1
    52    22    50 1
    53    22    51 1
    54    28    52 1
    55    29    53 1
    56    54    18 1
@<TRIPOS>SUBSTRUCTURE
     1 DQ2         1 TEMP              0 ****  ****    0 ROOT
