@<TRIPOS>MOLECULE
DQ5
   55    59     1     0     0
SMALL
bcc


@<TRIPOS>ATOM
      1 C02          0.0000     0.0000     0.0000 c3         1 DQ5      -0.078000
      2 C03          1.5290     0.0000     0.0000 c3         1 DQ5      -0.116000
      3 C04          2.0410     0.0000     1.4430 c3         1 DQ5      -0.104000
      4 C05          3.5710    -0.0010     1.4420 c3         1 DQ5      -0.050000
      5 C06          4.0730    -0.0000     2.8620 c2         1 DQ5      -0.079000
      6 C07          4.9520    -0.9880     3.2740 c2         1 DQ5      -0.095000
      7 C08          5.4140    -0.9880     4.5800 c2         1 DQ5      -0.146000
      8 C09          4.9750     0.0130     5.4390 c2         1 DQ5       0.115000
      9 C11          4.0850     0.9800     4.9530 c3         1 DQ5      -0.152000
     10 C12          3.6120     2.0560     5.8450 c2         1 DQ5      -0.365000
     11 C16         -1.8740    -0.0820    -1.4220 c2         1 DQ5      -0.032000
     12 C17         -2.6530     1.0650    -1.5460 c2         1 DQ5      -0.101000
     13 C18         -1.9360     2.3870    -1.6310 c3         1 DQ5      -0.046000
     14 C19         -2.8660     3.4660    -2.1810 c3         1 DQ5      -0.108000
     15 C20         -4.1680     3.4400    -1.3720 c3         1 DQ5      -0.106000
     16 C21         -4.9270     2.1620    -1.7210 c3         1 DQ5      -0.052000
     17 C22         -4.0320     0.9560    -1.5810 c2         1 DQ5      -0.022000
     18 C24         -3.9400    -1.3630    -1.3870 ca         1 DQ5      -0.012000
     19 C25         -4.5980    -2.6030    -1.3010 ca         1 DQ5      -0.072000
     20 C26         -3.8700    -3.7480    -1.1920 ca         1 DQ5      -0.099000
     21 C27         -2.4780    -3.7150    -1.1630 ca         1 DQ5      -0.095000
     22 C28         -1.8070    -2.5310    -1.2280 ca         1 DQ5      -0.096000
     23 C29         -2.5260    -1.3330    -1.3410 ca         1 DQ5      -0.107000
     24 N01         -0.4910    -0.0000    -1.3850 nu         1 DQ5      -0.043000
     25 N13          2.8000     2.9570     5.3980 n2         1 DQ5       0.126000
     26 N15          3.6740     0.9410     3.6910 n2         1 DQ5      -0.022000
     27 N23         -4.6230    -0.2230    -1.4960 n2         1 DQ5      -0.052000
     28 O10          5.4010     0.0540     6.7270 oh         1 DQ5      -0.220000
     29 O14          2.3450     3.9890     6.2550 oh         1 DQ5      -0.229000
     30 H1          -0.3610    -0.8840     0.5110 h1         1 DQ5       0.054500
     31 H2          -0.3610     0.8850     0.5110 h1         1 DQ5       0.054500
     32 H3           1.8900    -0.8840    -0.5110 hc         1 DQ5       0.056000
     33 H4           1.8900     0.8840    -0.5110 hc         1 DQ5       0.056000
     34 H5           1.6800     0.8850     1.9530 hc         1 DQ5       0.066500
     35 H6           1.6800    -0.8840     1.9540 hc         1 DQ5       0.066500
     36 H7           3.9320     0.8830     0.9300 hc         1 DQ5       0.062000
     37 H8           3.9310    -0.8860     0.9310 hc         1 DQ5       0.062000
     38 H9           5.2750    -1.7550     2.5800 ha         1 DQ5       0.118000
     39 H10          6.1020    -1.7510     4.9250 ha         1 DQ5       0.124000
     40 H11          4.3890     2.1770     5.1000 DU         1 DQ5       0.313000
     41 H12         -1.0800     2.2860    -2.2870 hc         1 DQ5       0.067000
     42 H13         -1.6030     2.6750    -0.6410 hc         1 DQ5       0.067000
     43 H14         -2.3950     4.4370    -2.0820 hc         1 DQ5       0.056000
     44 H15         -3.0810     3.2630    -3.2230 hc         1 DQ5       0.056000
     45 H16         -4.7710     4.3030    -1.6260 hc         1 DQ5       0.056000
     46 H17         -3.9380     3.4480    -0.3130 hc         1 DQ5       0.056000
     47 H18         -5.2810     2.2260    -2.7430 hc         1 DQ5       0.068500
     48 H19         -5.7730     2.0560    -1.0510 hc         1 DQ5       0.068500
     49 H20         -5.6800    -2.6470    -1.3210 ha         1 DQ5       0.116000
     50 H21         -4.3810    -4.7020    -1.1390 ha         1 DQ5       0.103000
     51 H22         -1.9220    -4.6400    -1.0760 ha         1 DQ5       0.101000
     52 H23         -0.7240    -2.5170    -1.2060 ha         1 DQ5       0.105000
     53 H24          0.0560    -0.4220    -2.1090 hn         1 DQ5       0.087000
     54 H25          5.0370    -0.6760     7.2020 ho         1 DQ5       0.211000
     55 H26          1.6590     4.4730     5.8270 ho         1 DQ5       0.207000
@<TRIPOS>BOND
     1     1     2 1   
     2     1    24 1   
     3     1    30 1   
     4     1    31 1   
     5     2     3 1   
     6     2    32 1   
     7     2    33 1   
     8     3     4 1   
     9     3    34 1   
    10     3    35 1   
    11     4     5 1   
    12     4    36 1   
    13     4    37 1   
    14     5     6 1   
    15     5    26 1   
    16     6     7 1   
    17     6    38 1   
    18     7     8 1   
    19     7    39 1   
    20     8     9 1   
    21     8    28 1   
    22     9    10 1   
    23     9    26 1   
    24     9    40 1   
    25    10    25 1   
    26    10    40 1   
    27    11    12 1   
    28    11    23 1   
    29    11    24 1   
    30    12    13 1   
    31    12    17 1   
    32    13    14 1   
    33    13    41 1   
    34    13    42 1   
    35    14    15 1   
    36    14    43 1   
    37    14    44 1   
    38    15    16 1   
    39    15    45 1   
    40    15    46 1   
    41    16    17 1   
    42    16    47 1   
    43    16    48 1   
    44    17    27 1   
    45    18    19 1   
    46    18    23 1   
    47    18    27 1   
    48    19    20 1   
    49    19    49 1   
    50    20    21 1   
    51    20    50 1   
    52    21    22 1   
    53    21    51 1   
    54    22    23 1   
    55    22    52 1   
    56    24    53 1   
    57    25    29 1   
    58    28    54 1   
    59    29    55 1   
@<TRIPOS>SUBSTRUCTURE
     1 DQ5         1 TEMP              0 ****  ****    0 ROOT
