@<TRIPOS>MOLECULE
molecule
   55    58     1     0     0
SMALL
bcc


@<TRIPOS>ATOM
      1 C02          0.0000     0.0000     0.0000 c3         1 DQ5       0.216800
      2 C03          1.5290     0.0000     0.0000 c3         1 DQ5      -0.096400
      3 C04          2.0410     0.0000     1.4430 c3         1 DQ5      -0.076400
      4 C05          3.5710    -0.0010     1.4420 c3         1 DQ5      -0.121700
      5 C06          4.0730    -0.0000     2.8620 ca         1 DQ5       0.412600
      6 C07          4.9520    -0.9880     3.2740 ca         1 DQ5      -0.220300
      7 C08          5.4140    -0.9880     4.5800 ca         1 DQ5      -0.146000
      8 C09          4.9750     0.0130     5.4390 ca         1 DQ5       0.008800
      9 C11          4.0850     0.9800     4.9530 ca         1 DQ5       0.386000
     10 C12          3.6120     2.0560     5.8450 ce         1 DQ5       0.316200
     11 C16         -1.8740    -0.0820    -1.4220 ca         1 DQ5       0.170600
     12 C17         -2.6530     1.0650    -1.5460 ca         1 DQ5      -0.187600
     13 C18         -1.9360     2.3870    -1.6310 c3         1 DQ5      -0.021100
     14 C19         -2.8660     3.4660    -2.1810 c3         1 DQ5      -0.085400
     15 C20         -4.1680     3.4400    -1.3720 c3         1 DQ5      -0.083400
     16 C21         -4.9270     2.1620    -1.7210 c3         1 DQ5      -0.124700
     17 C22         -4.0320     0.9560    -1.5810 ca         1 DQ5       0.456600
     18 C24         -3.9400    -1.3630    -1.3870 ca         1 DQ5       0.430600
     19 C25         -4.5980    -2.6030    -1.3010 ca         1 DQ5      -0.164300
     20 C26         -3.8700    -3.7480    -1.1920 ca         1 DQ5      -0.123000
     21 C27         -2.4780    -3.7150    -1.1630 ca         1 DQ5      -0.130000
     22 C28         -1.8070    -2.5310    -1.2280 ca         1 DQ5      -0.113000
     23 C29         -2.5260    -1.3330    -1.3410 ca         1 DQ5      -0.186300
     24 N01         -0.4910    -0.0000    -1.3850 nu         1 DQ5      -0.827600
     25 N13          2.8000     2.9570     5.3980 n2         1 DQ5      -0.397200
     26 N15          3.6740     0.9410     3.6910 nb         1 DQ5      -0.643000
     27 N23         -4.6230    -0.2230    -1.4960 nb         1 DQ5      -0.701000
     28 O10          5.4010     0.0540     6.7270 oh         1 DQ5      -0.506100
     29 O14          2.3450     3.9890     6.2550 oh         1 DQ5      -0.394500
     30 H1          -0.3610    -0.8840     0.5110 h1         1 DQ5       0.040200
     31 H2          -0.3610     0.8850     0.5110 h1         1 DQ5       0.040200
     32 H3           1.8900     0.8840    -0.5110 hc         1 DQ5       0.044700
     33 H4           1.8900    -0.8840    -0.5110 hc         1 DQ5       0.044700
     34 H5           1.6800    -0.8840     1.9540 hc         1 DQ5       0.057700
     35 H6           1.6800     0.8850     1.9530 hc         1 DQ5       0.057700
     36 H7           3.9320     0.8830     0.9300 hc         1 DQ5       0.055700
     37 H8           3.9310    -0.8860     0.9310 hc         1 DQ5       0.055700
     38 H9           5.2750    -1.7550     2.5800 ha         1 DQ5       0.143000
     39 H10          6.1020    -1.7510     4.9250 ha         1 DQ5       0.147000
     40 H11          3.9450     2.0900     6.8760 h4         1 DQ5       0.020800
     41 H12         -1.6030     2.6750    -0.6410 hc         1 DQ5       0.058200
     42 H13         -1.0800     2.2860    -2.2870 hc         1 DQ5       0.058200
     43 H14         -2.3950     4.4370    -2.0820 hc         1 DQ5       0.045200
     44 H15         -3.0810     3.2630    -3.2230 hc         1 DQ5       0.045200
     45 H16         -3.9380     3.4480    -0.3130 hc         1 DQ5       0.046700
     46 H17         -4.7710     4.3030    -1.6260 hc         1 DQ5       0.046700
     47 H18         -5.2810     2.2260    -2.7430 hc         1 DQ5       0.063700
     48 H19         -5.7730     2.0560    -1.0510 hc         1 DQ5       0.063700
     49 H20         -5.6800    -2.6470    -1.3210 ha         1 DQ5       0.147000
     50 H21         -4.3810    -4.7020    -1.1390 ha         1 DQ5       0.131000
     51 H22         -1.9220    -4.6400    -1.0760 ha         1 DQ5       0.128000
     52 H23         -0.7240    -2.5170    -1.2060 ha         1 DQ5       0.128000
     53 H24          0.0560    -0.4220    -2.1090 hn         1 DQ5       0.425800
     54 H25          6.3410     0.1250     6.7460 ho         1 DQ5       0.425000
     55 H26          1.7640     4.5590     5.7790 ho         1 DQ5       0.433000
@<TRIPOS>BOND
     1    20    19 ar
     2    20    21 ar
     3    19    18 ar
     4    21    22 ar
     5    18    27 ar
     6    18    23 ar
     7    27    17 ar
     8    22    23 ar
     9    23    11 ar
    10    17    16 1
    11    17    12 ar
    12    16    15 1
    13    11    12 ar
    14    11    24 1
    15    29    25 1
    16    12    13 1
    17    24     1 1
    18    15    14 1
    19    25    10 2
    20    14    13 1
    21    10     9 1
    22     1     2 1
    23     9    26 ar
    24     9     8 ar
    25     2     3 1
    26     3     4 1
    27    26     5 ar
    28    28     8 1
    29     8     7 ar
    30     5     4 1
    31     5     6 ar
    32     7     6 ar
    33     1    30 1
    34     1    31 1
    35     2    32 1
    36     2    33 1
    37     3    34 1
    38     3    35 1
    39     4    36 1
    40     4    37 1
    41     6    38 1
    42     7    39 1
    43    10    40 1
    44    13    41 1
    45    13    42 1
    46    14    43 1
    47    14    44 1
    48    15    45 1
    49    15    46 1
    50    16    47 1
    51    16    48 1
    52    19    49 1
    53    20    50 1
    54    21    51 1
    55    22    52 1
    56    24    53 1
    57    28    54 1
    58    29    55 1
@<TRIPOS>SUBSTRUCTURE
     1 DQ5         1 TEMP              0 ****  ****    0 ROOT
