@<TRIPOS>MOLECULE
molecule
   52    54     1     0     0
SMALL
bcc


@<TRIPOS>ATOM
      1 CAA          0.0000     0.0000     0.0000 c3         1 DQ6      -0.048800
      2 CAV          1.5080     0.0000     0.0000 ca         1 DQ6      -0.078300
      3 CAR          2.1980     0.0000     1.1980 ca         1 DQ6      -0.112000
      4 CAL          2.1980    -0.0050    -1.1970 ca         1 DQ6      -0.127000
      5 CAK          3.5810    -0.0040    -1.1970 ca         1 DQ6      -0.124000
      6 CAQ          4.2720     0.0020    -0.0000 ca         1 DQ6      -0.142000
      7 CAY          3.5810     0.0010     1.1970 ca         1 DQ6      -0.071300
      8 CBA          4.3340     0.0020     2.5020 c3         1 DQ6       0.089900
      9 CAX          3.8460    -1.1340     3.3650 ca         1 DQ6      -0.083800
     10 CAO          3.1100    -0.8690     4.5030 ca         1 DQ6      -0.128250
     11 CAI          2.6610    -1.9100     5.2950 ca         1 DQ6      -0.124750
     12 CAF          2.9500    -3.2170     4.9470 ca         1 DQ6      -0.123000
     13 CAJ          3.6870    -3.4810     3.8060 ca         1 DQ6      -0.124750
     14 CAP          4.1300    -2.4400     3.0130 ca         1 DQ6      -0.128250
     15 CAT          5.8290    -0.1730     2.2280 c3         1 DQ6      -0.082400
     16 CB           6.5820    -0.2830     3.5560 c3         1 DQ6      -0.105400
     17 CA           8.0520    -0.6060     3.2820 c3         1 DQ6      -0.019500
     18 C            8.8180    -0.5940     4.5810 c          1 DQ6       0.870600
     19 OXT          9.2090     0.5720     5.1170 o          1 DQ6      -0.778300
     20 O            9.0810    -1.6340     5.1370 o          1 DQ6      -0.778300
     21 N            8.1550    -1.9350     2.6660 nz         1 DQ6      -0.792600
     22 CAW          4.1030     1.3090     3.2150 ca         1 DQ6      -0.083800
     23 CAM          3.4200     2.3310     2.5810 ca         1 DQ6      -0.128250
     24 CAG          3.2090     3.5300     3.2350 ca         1 DQ6      -0.124750
     25 CAE          3.6800     3.7070     4.5230 ca         1 DQ6      -0.123000
     26 CAH          4.3620     2.6860     5.1570 ca         1 DQ6      -0.124750
     27 CAN          4.5690     1.4850     4.5050 ca         1 DQ6      -0.128250
     28 HAA1        -0.3610    -1.0170     0.0960 hc         1 DQ6       0.045700
     29 HAA2        -0.3610     0.4260    -0.9280 hc         1 DQ6       0.045700
     30 HAA3        -0.3610     0.5910     0.8330 hc         1 DQ6       0.045700
     31 HAR          1.6570    -0.0010     2.1360 ha         1 DQ6       0.145000
     32 HAL          1.6570    -0.0090    -2.1350 ha         1 DQ6       0.133000
     33 HAK          4.1220    -0.0050    -2.1360 ha         1 DQ6       0.130000
     34 HAQ          5.3550     0.0030    -0.0010 ha         1 DQ6       0.123000
     35 HAT1         5.9870    -1.0730     1.6480 hc         1 DQ6       0.038200
     36 HAT2         6.1970     0.6830     1.6740 hc         1 DQ6       0.038200
     37 HAO          2.8830     0.1540     4.7770 ha         1 DQ6       0.140750
     38 HAP          4.7070    -2.6470     2.1200 ha         1 DQ6       0.140750
     39 HAI          2.0840    -1.7030     6.1880 ha         1 DQ6       0.134250
     40 HAF          2.6010    -4.0330     5.5670 ha         1 DQ6       0.133000
     41 HAJ          3.9110    -4.5050     3.5320 ha         1 DQ6       0.134250
     42 HB1C         6.1440    -1.0710     4.1550 hc         1 DQ6       0.097200
     43 HB2C         6.5130     0.6580     4.0890 hc         1 DQ6       0.097200
     44 HA           8.4670     0.1360     2.6110 hx         1 DQ6       0.102700
     45 HN1          9.1050    -2.2480     2.7040 hn         1 DQ6       0.438800
     46 HN2          7.8570    -1.8850     1.7120 hn         1 DQ6       0.438800
     47 HAM          3.0510     2.1910     1.5720 ha         1 DQ6       0.140750
     48 HAN          5.1040     0.6840     5.0020 ha         1 DQ6       0.140750
     49 HAG          2.6740     4.3310     2.7390 ha         1 DQ6       0.134250
     50 HAE          3.5160     4.6480     5.0350 ha         1 DQ6       0.133000
     51 HAH          4.7290     2.8250     6.1670 ha         1 DQ6       0.134250
     52 HN3          7.6010    -2.5870     3.1850 hn         1 DQ6       0.438800
@<TRIPOS>BOND
     1     1     2 1
     2     2     3 ar
     3     2     4 ar
     4     3     7 ar
     5     4     5 ar
     6     5     6 ar
     7     6     7 ar
     8     7     8 1
     9     8     9 1
    10     8    15 1
    11     8    22 1
    12     9    10 ar
    13     9    14 ar
    14    10    11 ar
    15    11    12 ar
    16    12    13 ar
    17    13    14 ar
    18    15    16 1
    19    16    17 1
    20    17    18 1
    21    17    21 1
    22    18    19 1
    23    18    20 1
    24    22    23 ar
    25    22    27 ar
    26    23    24 ar
    27    24    25 ar
    28    25    26 ar
    29    26    27 ar
    30     1    28 1
    31     1    29 1
    32     1    30 1
    33     3    31 1
    34     4    32 1
    35     5    33 1
    36     6    34 1
    37    15    35 1
    38    15    36 1
    39    10    37 1
    40    14    38 1
    41    11    39 1
    42    12    40 1
    43    13    41 1
    44    16    42 1
    45    16    43 1
    46    17    44 1
    47    21    45 1
    48    21    46 1
    49    23    47 1
    50    27    48 1
    51    24    49 1
    52    25    50 1
    53    26    51 1
    54    52    21 1
@<TRIPOS>SUBSTRUCTURE
     1 DQ6         1 TEMP              0 ****  ****    0 ROOT
