@<TRIPOS>MOLECULE
DQ7
   52    54     1     0     0
SMALL
bcc


@<TRIPOS>ATOM
      1 N            0.0000     0.0000     0.0000 nz         1 DQ7       0.047400
      2 CA           1.4690     0.0000     0.0000 c3         1 DQ7      -0.114500
      3 CB           1.9790     0.0000     1.4430 c3         1 DQ7      -0.199400
      4 C            1.9720     1.2310    -0.7100 c          1 DQ7       0.951600
      5 OXT          3.2250     1.2650    -1.1890 o          1 DQ7      -0.814300
      6 O            1.2460     2.1870    -0.8490 o          1 DQ7      -0.814300
      7 CAO          1.7430    -3.8280     3.6580 ca         1 DQ7      -0.110250
      8 CAW          1.2690    -4.9360     4.3330 ca         1 DQ7      -0.096000
      9 CAP          0.7380    -4.7990     5.6030 ca         1 DQ7      -0.098500
     10 CAJ          0.6820    -3.5510     6.1960 ca         1 DQ7      -0.096000
     11 CAE          1.1570    -2.4420     5.5200 ca         1 DQ7      -0.110250
     12 CAI          1.6870    -2.5800     4.2520 ca         1 DQ7      -0.083800
     13 CAF          2.8580     0.7350     4.7010 ca         1 DQ7      -0.110250
     14 CAL          2.5380     1.8790     5.4080 ca         1 DQ7      -0.096000
     15 CAR          1.2170     2.1610     5.7020 ca         1 DQ7      -0.098500
     16 CAX          0.2170     1.3000     5.2890 ca         1 DQ7      -0.096000
     17 CAQ          0.5390     0.1570     4.5830 ca         1 DQ7      -0.110250
     18 CAK          1.8590    -0.1260     4.2880 ca         1 DQ7      -0.083800
     19 CAN          4.5050    -1.4530     4.5100 ca         1 DQ7      -0.098000
     20 CAH          5.8790    -1.5540     4.3850 ca         1 DQ7      -0.084300
     21 CAD          6.4530    -1.6760     3.1350 ca         1 DQ7      -0.099000
     22 CAG          5.6540    -1.6980     2.0060 ca         1 DQ7      -0.074000
     23 CAM          4.2810    -1.5990     2.1300 ca         1 DQ7      -0.135000
     24 CAV          3.7070    -1.4760     3.3820 ca         1 DQ7      -0.087300
     25 CAT          1.5750    -1.3070     2.1260 c3         1 DQ7       0.002600
     26 CAZ          2.2090    -1.3730     3.5170 c3         1 DQ7       0.127900
     27 HN1         -0.3340     0.2370    -0.9130 hn         1 DQ7       0.215133
     28 HN2         -0.3340    -0.9090     0.2520 hn         1 DQ7       0.215133
     29 HA           1.8310    -0.8840    -0.5110 hx         1 DQ7       0.060700
     30 HB1C         2.3650    -0.7170     0.7280 hc         1 DQ7       0.103700
     31 HB2C         2.8720     0.5340     1.7440 hc         1 DQ7       0.103700
     32 HAT1         0.4960    -1.3480     2.2190 hc         1 DQ7       0.006700
     33 HAT2         1.9180    -2.1460     1.5330 hc         1 DQ7       0.006700
     34 HAD          7.5290    -1.7550     3.0380 ha         1 DQ7       0.109000
     35 HAN          4.0560    -1.3570     5.4900 ha         1 DQ7       0.123000
     36 HAA1         7.5520    -2.2490     5.5040 hc         1 DQ7       0.009033
     37 HAA2         7.1690    -0.5390     5.7420 hc         1 DQ7       0.009033
     38 HAA3         6.1540    -1.7830     6.4840 hc         1 DQ7       0.009033
     39 HAF          3.8890     0.5370     4.4300 ha         1 DQ7       0.120000
     40 HAL          3.3180     2.5720     5.7000 ha         1 DQ7       0.104250
     41 HAR          0.9650     3.0580     6.2540 ha         1 DQ7       0.104000
     42 HAX         -0.8210     1.5420     5.4850 ha         1 DQ7       0.104250
     43 HAQ         -0.2460    -0.5050     4.2380 ha         1 DQ7       0.120000
     44 HAE          1.1130    -1.4650     5.9860 ha         1 DQ7       0.120000
     45 HAJ          0.2670    -3.4420     7.1900 ha         1 DQ7       0.104250
     46 HAP          0.3660    -5.6680     6.1320 ha         1 DQ7       0.104000
     47 HAW          1.3130    -5.9140     3.8680 ha         1 DQ7       0.104250
     48 HAO          2.1580    -3.9360     2.6630 ha         1 DQ7       0.120000
     49 CAA          6.7500    -1.5300     5.6150 c3         1 DQ7       0.062200
     50 HAM          3.6550    -1.6160     1.2470 ha         1 DQ7       0.114000
     51 HN3         -0.3340     0.6410     0.6930 hn         1 DQ7       0.215133
     52 HAG          6.1030    -1.7940     1.0250 ha         1 DQ7       0.111000
@<TRIPOS>BOND
     1     1     2 1   
     2     1    27 1   
     3     1    28 1   
     4     1    51 1   
     5     2     3 1   
     6     2     4 1   
     7     2    29 1   
     8     3    25 1   
     9     3    30 1   
    10     3    31 1   
    11     4     5 1   
    12     4     6 1   
    13     7     8 ar  
    14     7    12 ar  
    15     7    48 1   
    16     8     9 ar  
    17     8    47 1   
    18     9    10 ar  
    19     9    46 1   
    20    10    11 ar  
    21    10    45 1   
    22    11    12 ar  
    23    11    44 1   
    24    12    26 1   
    25    13    14 ar  
    26    13    18 ar  
    27    13    39 1   
    28    14    15 ar  
    29    14    40 1   
    30    15    16 ar  
    31    15    41 1   
    32    16    17 ar  
    33    16    42 1   
    34    17    18 ar  
    35    17    43 1   
    36    18    26 1   
    37    19    20 ar  
    38    19    24 ar  
    39    19    35 1   
    40    20    21 ar  
    41    20    49 1   
    42    21    22 ar  
    43    21    34 1   
    44    22    23 ar  
    45    22    52 1   
    46    23    24 ar  
    47    23    50 1   
    48    24    26 1   
    49    25    26 1   
    50    25    32 1   
    51    25    33 1   
    52    36    49 1   
    53    37    49 1   
    54    38    49 1   
@<TRIPOS>SUBSTRUCTURE
     1 DQ7         1 TEMP              0 ****  ****    0 ROOT
