@<TRIPOS>MOLECULE
molecule
   52    54     1     0     0
SMALL
bcc


@<TRIPOS>ATOM
      1 N            0.0000     0.0000     0.0000 nz         1 DQ7      -0.798600
      2 CA           1.4690     0.0000     0.0000 c3         1 DQ7       0.038500
      3 CB           1.9790     0.0000     1.4430 c3         1 DQ7      -0.211400
      4 C            1.9720     1.2310    -0.7100 c          1 DQ7       0.868600
      5 OXT          3.2250     1.2650    -1.1890 o          1 DQ7      -0.770800
      6 O            1.2460     2.1870    -0.8490 o          1 DQ7      -0.770800
      7 CAO          1.7430    -3.8280     3.6580 ca         1 DQ7      -0.124500
      8 CAW          1.2690    -4.9360     4.3330 ca         1 DQ7      -0.126750
      9 CAP          0.7380    -4.7990     5.6030 ca         1 DQ7      -0.124500
     10 CAJ          0.6820    -3.5510     6.1960 ca         1 DQ7      -0.126750
     11 CAE          1.1570    -2.4420     5.5200 ca         1 DQ7      -0.124500
     12 CAI          1.6870    -2.5800     4.2520 ca         1 DQ7      -0.076800
     13 CAF          2.8580     0.7350     4.7010 ca         1 DQ7      -0.124500
     14 CAL          2.5380     1.8790     5.4080 ca         1 DQ7      -0.126750
     15 CAR          1.2170     2.1610     5.7020 ca         1 DQ7      -0.124500
     16 CAX          0.2170     1.3000     5.2890 ca         1 DQ7      -0.126750
     17 CAQ          0.5390     0.1570     4.5830 ca         1 DQ7      -0.124500
     18 CAK          1.8590    -0.1260     4.2880 ca         1 DQ7      -0.076800
     19 CAN          4.5050    -1.4530     4.5100 ca         1 DQ7      -0.116000
     20 CAH          5.8790    -1.5540     4.3850 ca         1 DQ7      -0.081300
     21 CAD          6.4530    -1.6760     3.1350 ca         1 DQ7      -0.124000
     22 CAG          5.6540    -1.6980     2.0060 ca         1 DQ7      -0.110000
     23 CAM          4.2810    -1.5990     2.1300 ca         1 DQ7      -0.141000
     24 CAV          3.7070    -1.4760     3.3820 ca         1 DQ7      -0.080300
     25 CAT          1.5750    -1.3070     2.1260 c3         1 DQ7      -0.053400
     26 CAZ          2.2090    -1.3730     3.5170 c3         1 DQ7       0.095900
     27 HN1         -0.3340     0.2370    -0.9130 hn         1 DQ7       0.437133
     28 HN2         -0.3340    -0.9090     0.2520 hn         1 DQ7       0.437133
     29 HA           1.8310    -0.8840    -0.5110 hx         1 DQ7       0.075700
     30 HB1C         2.3650    -0.7170     0.7280 hc         1 DQ7       0.122700
     31 HB2C         2.8720     0.5340     1.7440 hc         1 DQ7       0.122700
     32 HAT1         0.4960    -1.3480     2.2190 hc         1 DQ7       0.028700
     33 HAT2         1.9180    -2.1460     1.5330 hc         1 DQ7       0.028700
     34 HAD          7.5290    -1.7550     3.0380 ha         1 DQ7       0.134000
     35 HAN          4.0560    -1.3570     5.4900 ha         1 DQ7       0.142000
     36 HAA1         7.5520    -2.2490     5.5040 hc         1 DQ7       0.044700
     37 HAA2         7.1690    -0.5390     5.7420 hc         1 DQ7       0.044700
     38 HAA3         6.1540    -1.7830     6.4840 hc         1 DQ7       0.044700
     39 HAF          3.8890     0.5370     4.4300 ha         1 DQ7       0.139000
     40 HAL          3.3180     2.5720     5.7000 ha         1 DQ7       0.132000
     41 HAR          0.9650     3.0580     6.2540 ha         1 DQ7       0.131500
     42 HAX         -0.8210     1.5420     5.4850 ha         1 DQ7       0.132000
     43 HAQ         -0.2460    -0.5050     4.2380 ha         1 DQ7       0.139000
     44 HAE          1.1130    -1.4650     5.9860 ha         1 DQ7       0.139000
     45 HAJ          0.2670    -3.4420     7.1900 ha         1 DQ7       0.132000
     46 HAP          0.3660    -5.6680     6.1320 ha         1 DQ7       0.131500
     47 HAW          1.3130    -5.9140     3.8680 ha         1 DQ7       0.132000
     48 HAO          2.1580    -3.9360     2.6630 ha         1 DQ7       0.139000
     49 CAA          6.7500    -1.5300     5.6150 c3         1 DQ7      -0.048800
     50 HAM          3.6550    -1.6160     1.2470 ha         1 DQ7       0.126000
     51 HN3         -0.3340     0.6410     0.6930 hn         1 DQ7       0.437133
     52 HAG          6.1030    -1.7940     1.0250 ha         1 DQ7       0.140000
@<TRIPOS>BOND
     1     1     2 1
     2     2     3 1
     3     2     4 1
     4     3    25 1
     5     4     5 1
     6     4     6 1
     7    23    22 ar
     8    23    24 ar
     9    22    21 ar
    10    21    20 ar
    11    20    19 ar
    12    20    49 1
    13    19    24 ar
    14    24    26 1
    15    13    14 ar
    16    13    18 ar
    17    14    15 ar
    18    15    16 ar
    19    16    17 ar
    20    17    18 ar
    21    18    26 1
    22    11    10 ar
    23    11    12 ar
    24    10     9 ar
    25     9     8 ar
    26     8     7 ar
    27     7    12 ar
    28    12    26 1
    29    26    25 1
    30     1    27 1
    31     1    28 1
    32     2    29 1
    33     3    30 1
    34     3    31 1
    35    25    32 1
    36    25    33 1
    37    23    50 1
    38    22    52 1
    39    21    34 1
    40    19    35 1
    41    49    36 1
    42    49    37 1
    43    49    38 1
    44    13    39 1
    45    14    40 1
    46    15    41 1
    47    16    42 1
    48    17    43 1
    49    11    44 1
    50    10    45 1
    51     9    46 1
    52     8    47 1
    53     7    48 1
    54    51     1 1
@<TRIPOS>SUBSTRUCTURE
     1 DQ7         1 TEMP              0 ****  ****    0 ROOT
