@<TRIPOS>MOLECULE
DQ8
   50    52     1     0     0
SMALL
bcc


@<TRIPOS>ATOM
      1 CAA          0.0000     0.0000     0.0000 c3         1 DQ8      -0.091100
      2 CAU          1.5080     0.0000     0.0000 c          1 DQ8       0.642700
      3 OAC          2.1140     0.0000     1.0510 o          1 DQ8      -0.597100
      4 CAV          2.2430     0.0000    -1.2740 ca         1 DQ8      -0.189600
      5 CAQ          3.6420     0.0010    -1.2780 ca         1 DQ8      -0.092000
      6 CAK          1.5480    -0.0050    -2.4870 ca         1 DQ8      -0.046000
      7 CAJ          2.2450    -0.0050    -3.6770 ca         1 DQ8      -0.100000
      8 CAP          3.6290     0.0010    -3.6730 ca         1 DQ8      -0.048000
      9 CAY          4.3250     0.0010    -2.4760 ca         1 DQ8      -0.116300
     10 CAZ          5.8320     0.0020    -2.4830 c3         1 DQ8       0.273000
     11 CAX          6.3300     1.2190    -3.2190 ca         1 DQ8      -0.116300
     12 CAN          6.5750     1.1520    -4.5780 ca         1 DQ8      -0.098250
     13 CAH          7.0320     2.2690    -5.2520 ca         1 DQ8      -0.093500
     14 CAE          7.2450     3.4520    -4.5680 ca         1 DQ8      -0.081000
     15 CAI          6.9990     3.5180    -3.2090 ca         1 DQ8      -0.093500
     16 CAO          6.5370     2.4030    -2.5350 ca         1 DQ8      -0.098250
     17 SAT          6.4440     0.0340    -0.7760 ss         1 DQ8      -0.314200
     18 CAS          5.9140    -1.5730    -0.1210 c3         1 DQ8       0.000700
     19 CAR          6.2380    -1.6480     1.3720 c3         1 DQ8      -0.025200
     20 NAB          5.8090    -2.9490     1.9020 nz         1 DQ8       0.081400
     21 CAW          6.3310    -1.2420    -3.1710 ca         1 DQ8      -0.116300
     22 CAL          7.6860    -1.4190    -3.3820 ca         1 DQ8      -0.098250
     23 CAF          8.1440    -2.5590    -4.0150 ca         1 DQ8      -0.093500
     24 CAD          7.2480    -3.5230    -4.4360 ca         1 DQ8      -0.081000
     25 CAG          5.8930    -3.3470    -4.2250 ca         1 DQ8      -0.093500
     26 CAM          5.4350    -2.2080    -3.5890 ca         1 DQ8      -0.098250
     27 HAA1        -0.3610     0.8830    -0.5140 hc         1 DQ8       0.033367
     28 HAA2        -0.3610    -0.8860    -0.5080 hc         1 DQ8       0.033367
     29 HAA3        -0.3610     0.0030     1.0210 hc         1 DQ8       0.033367
     30 HAQ          4.1880     0.0020    -0.3420 ha         1 DQ8       0.143000
     31 HAK          0.4650    -0.0110    -2.4920 ha         1 DQ8       0.119000
     32 HAJ          1.7070    -0.0080    -4.6180 ha         1 DQ8       0.120000
     33 HAP          4.1710     0.0010    -4.6110 ha         1 DQ8       0.127000
     34 HAN          6.4080     0.2260    -5.1140 ha         1 DQ8       0.124000
     35 HAO          6.3440     2.4550    -1.4710 ha         1 DQ8       0.124000
     36 HAH          7.2250     2.2170    -6.3160 ha         1 DQ8       0.113500
     37 HAE          7.6050     4.3260    -5.0970 ha         1 DQ8       0.113500
     38 HAI          7.1640     4.4450    -2.6740 ha         1 DQ8       0.113500
     39 HAS1         4.8460    -1.6870    -0.2660 h1         1 DQ8       0.066200
     40 HAS2         6.4360    -2.3650    -0.6440 h1         1 DQ8       0.066200
     41 HAR1         7.3050    -1.5330     1.5170 hx         1 DQ8       0.097200
     42 HAR2         5.7160    -0.8550     1.8950 hx         1 DQ8       0.097200
     43 HAB1         6.3050    -3.6800     1.4320 hn         1 DQ8       0.224133
     44 HAB2         4.8260    -3.0630     1.7510 hn         1 DQ8       0.224133
     45 HAL          8.3880    -0.6630    -3.0520 ha         1 DQ8       0.124000
     46 HAM          4.3730    -2.0700    -3.4230 ha         1 DQ8       0.124000
     47 HAF          9.2050    -2.6970    -4.1800 ha         1 DQ8       0.113500
     48 HAD          7.6070    -4.4160    -4.9330 ha         1 DQ8       0.113500
     49 HAG          5.1910    -4.1040    -4.5540 ha         1 DQ8       0.113500
     50 HAB3         6.0100    -2.9940     2.8810 hn         1 DQ8       0.224133
@<TRIPOS>BOND
     1     1     2 1   
     2     1    27 1   
     3     1    28 1   
     4     1    29 1   
     5     2     3 2   
     6     2     4 1   
     7     4     5 ar  
     8     4     6 ar  
     9     5     9 ar  
    10     5    30 1   
    11     6     7 ar  
    12     6    31 1   
    13     7     8 ar  
    14     7    32 1   
    15     8     9 ar  
    16     8    33 1   
    17     9    10 1   
    18    10    11 1   
    19    10    17 1   
    20    10    21 1   
    21    11    12 ar  
    22    11    16 ar  
    23    12    13 ar  
    24    12    34 1   
    25    13    14 ar  
    26    13    36 1   
    27    14    15 ar  
    28    14    37 1   
    29    15    16 ar  
    30    15    38 1   
    31    16    35 1   
    32    17    18 1   
    33    18    19 1   
    34    18    39 1   
    35    18    40 1   
    36    19    20 1   
    37    19    41 1   
    38    19    42 1   
    39    20    43 1   
    40    20    44 1   
    41    20    50 1   
    42    21    22 ar  
    43    21    26 ar  
    44    22    23 ar  
    45    22    45 1   
    46    23    24 ar  
    47    23    47 1   
    48    24    25 ar  
    49    24    48 1   
    50    25    26 ar  
    51    25    49 1   
    52    26    46 1   
@<TRIPOS>SUBSTRUCTURE
     1 DQ8         1 TEMP              0 ****  ****    0 ROOT
