@<TRIPOS>MOLECULE
molecule
   22    22     1     0     0
SMALL
bcc


@<TRIPOS>ATOM
      1 C1           0.0000     0.0000     0.0000 c3         1 DQA       0.051800
      2 C2           1.5290     0.0000     0.0000 c3         1 DQA      -0.065400
      3 C3           2.0470     0.0000     1.4380 c3         1 DQA       0.143100
      4 O3           3.4750    -0.0840     1.4290 oh         1 DQA      -0.619800
      5 C4           1.6150     1.2930     2.1350 c3         1 DQA       0.042100
      6 O4           1.9840     1.2450     3.5150 oh         1 DQA      -0.591800
      7 C5           0.1150     1.4260     2.0140 c          1 DQA       0.561100
      8 C6          -0.5090     1.2930     0.6430 c3         1 DQA      -0.184400
      9 C           -0.5040    -0.0900    -1.4170 c          1 DQA       0.873600
     10 O1          -1.1980    -1.0180    -1.7560 o          1 DQA      -0.831800
     11 O2          -0.1800     0.8630    -2.3060 o          1 DQA      -0.831800
     12 O5          -0.5690     1.6360     2.9870 o          1 DQA      -0.540100
     13 O6          -0.4760    -1.1220     0.7450 oh         1 DQA      -0.630800
     14 H21          1.8870     0.8860    -0.5100 hc         1 DQA       0.067200
     15 H22          1.8870    -0.8860    -0.5100 hc         1 DQA       0.067200
     16 H3           1.6350    -0.8490     1.9690 h1         1 DQA       0.064700
     17 HO3          3.7410    -0.9380     1.7260 ho         1 DQA       0.396000
     18 H4           2.0930     2.1390     1.6560 h1         1 DQA       0.056700
     19 HO4          2.3830     2.0630     3.7620 ho         1 DQA       0.393000
     20 H61         -0.2240     2.1400     0.0300 hc         1 DQA       0.079200
     21 H62         -1.5880     1.2510     0.7370 hc         1 DQA       0.079200
     22 HO6         -1.3560    -1.3280     0.4760 ho         1 DQA       0.420000
@<TRIPOS>BOND
     1     1     2 1
     2     1     8 1
     3     1     9 1
     4     1    13 1
     5     2     3 1
     6     2    14 1
     7     2    15 1
     8     3     4 1
     9     3     5 1
    10     3    16 1
    11     4    17 1
    12     5     6 1
    13     5     7 1
    14     5    18 1
    15     6    19 1
    16     7     8 1
    17     7    12 2
    18     8    20 1
    19     8    21 1
    20     9    10 1
    21     9    11 1
    22    13    22 1
@<TRIPOS>SUBSTRUCTURE
     1 DQA         1 TEMP              0 ****  ****    0 ROOT
