@<TRIPOS>MOLECULE
DQA
   22    22     1     0     0
SMALL
bcc


@<TRIPOS>ATOM
      1 C1         -0.0550   -0.0060    0.0490 c3        1 DQA      0.021800
      2 C2          1.4630   -0.1770    0.0160 c3        1 DQA     -0.074400
      3 C3          2.0660   -0.0470    1.4060 c3        1 DQA      0.132100
      4 O3          3.4730   -0.2180    1.2990 oh        1 DQA     -0.606800
      5 C4          1.7430    1.3400    1.9910 c3        1 DQA     -0.005900
      6 O4          2.3580    1.4780    3.2620 oh        1 DQA     -0.617800
      7 C5          0.2400    1.5330    2.0290 c         1 DQA      0.569100
      8 C6         -0.4720    1.2950    0.7420 c3        1 DQA     -0.174400
      9 C          -0.5820    0.0450   -1.4300 c         1 DQA      0.905600
     10 O1         -1.3190   -0.9140   -1.7870 o         1 DQA     -0.817800
     11 O2         -0.2430    1.0260   -2.1410 o         1 DQA     -0.817800
     12 O5         -0.3120    1.8670    3.0860 o         1 DQA     -0.577100
     13 O6         -0.6210   -1.0960    0.7620 oh        1 DQA     -0.640800
     14 H21         1.7080   -1.1890   -0.3940 hc        1 DQA      0.067700
     15 H22         1.8970    0.5950   -0.6710 hc        1 DQA      0.067700
     16 H3          1.6510   -0.8430    2.0870 h1        1 DQA      0.047700
     17 HO3         3.8430    0.0530    2.1490 ho        1 DQA      0.401000
     18 H4          2.2110    2.1390    1.3490 h1        1 DQA      0.093700
     19 HO4         1.6940    1.2650    3.9320 ho        1 DQA      0.415000
     20 H61        -1.5790    1.2710    0.9190 hc        1 DQA      0.088700
     21 H62        -0.2420    2.1400    0.0350 hc        1 DQA      0.088700
     22 HO6        -1.1810   -1.5830    0.1340 ho        1 DQA      0.434000
@<TRIPOS>BOND
     1    1    2 1   
     2    1    8 1   
     3    1    9 1   
     4    1   13 1   
     5    2    3 1   
     6    2   14 1   
     7    2   15 1   
     8    3    4 1   
     9    3    5 1   
    10    3   16 1   
    11    4   17 1   
    12    5    6 1   
    13    5    7 1   
    14    5   18 1   
    15    6   19 1   
    16    7    8 1   
    17    7   12 2   
    18    8   20 1   
    19    8   21 1   
    20    9   10 1   
    21    9   11 1   
    22   13   22 1   
@<TRIPOS>SUBSTRUCTURE
     1 DQA         1 TEMP              0 ****  ****    0 ROOT
