@<TRIPOS>MOLECULE
DQB
   52    49     1     0     0
SMALL
bcc


@<TRIPOS>ATOM
      1 C11       166.0460  -37.1290  311.2180 c3        1 DQB     -0.217000
      2 C12       165.8470  -36.6260  309.8050 c3        1 DQB     -0.111000
      3 C13       166.5720  -37.3870  308.8340 c1        1 DQB      0.148000
      4 C14       167.1830  -38.0290  308.0210 c1        1 DQB     -0.322000
      5 C15       166.2370  -39.0420  301.7270 c2        1 DQB     -0.170000
      6 C16       166.5020  -38.6890  302.9820 c2        1 DQB     -0.208000
      7 C         167.8760  -38.7450  307.0270 c2        1 DQB      0.468000
      8 O         167.6760  -38.2800  305.7790 os        1 DQB     -0.160000
      9 N         168.6640  -39.7850  307.3160 n3        1 DQB     -0.300000
     10 CA        168.3420  -38.9050  304.6420 c3        1 DQB     -0.033000
     11 CB        167.8130  -38.1610  303.4280 c3        1 DQB     -0.135000
     12 CG        170.8480  -44.3740  306.1980 c1        1 DQB      0.225500
     13 CD        169.4410  -43.0490  304.8210 c1        1 DQB      0.225500
     14 OE1       169.2190  -41.9960  305.3080 o         1 DQB     -0.222500
     15 OE2       171.3840  -45.4100  306.2420 o         1 DQB     -0.222500
     16 N10      -210.8180   52.6390 -382.1090 n1        1 DQB      0.094000
     17 N1       -214.2460   50.2680 -387.4110 n3        1 DQB     -0.273000
     18 C2       -214.0980   48.9400 -387.7320 cz        1 DQB      0.395000
     19 N3       -213.7830   48.0110 -386.7400 n         1 DQB     -0.344000
     20 C4       -213.3080   48.3940 -385.4510 c2        1 DQB      0.362000
     21 C5       -212.4220   50.3490 -384.2200 c2        1 DQB     -0.005000
     22 C6       -212.3210   51.7910 -384.0310 c2        1 DQB      0.101000
     23 C7       -212.9820   52.6500 -384.8710 c2        1 DQB     -0.148000
     24 C8       -213.6170   52.1610 -386.0410 c1        1 DQB     -0.011000
     25 C4A      -213.2030   49.8420 -385.2010 c2        1 DQB     -0.192000
     26 C8A      -214.0500   50.7480 -386.0490 c3        1 DQB     -0.012000
     27 C9       -211.4930   52.2540 -382.9760 c1        1 DQB     -0.158000
     28 H12       164.7490  -36.6560  309.5380 hc        1 DQB      0.148000
     29 H13       166.1740  -35.5460  309.7330 hc        1 DQB      0.148000
     30 H15       165.2450  -39.4030  301.4200 ha        1 DQB      0.128000
     31 H16       167.1210  -37.0760  311.5140 hc        1 DQB      0.100000
     32 HN        165.7320  -38.7420  303.7700 ha        1 DQB      0.127000
     33 HA1       168.7650  -40.0860  308.2640 hn        1 DQB      0.288500
     34 HA2       169.1370  -40.3090  306.6040 hn        1 DQB      0.288500
     35 HB1       168.0770  -39.9940  304.6140 h1        1 DQB      0.114500
     36 HB2       169.4460  -38.7570  304.7660 h1        1 DQB      0.114500
     37 HG1       168.5870  -38.2510  302.6180 hc        1 DQB      0.125500
     38 HG2       167.7070  -37.0680  303.6760 hc        1 DQB      0.125500
     39 H10       165.4540  -36.4920  311.9200 hc        1 DQB      0.100000
     40 HN3      -213.8250   47.0290 -386.9410 hn        1 DQB      0.288000
     41 H5       -211.8560   49.6840 -383.5350 ha        1 DQB      0.203000
     42 H7       -212.9440   53.7470 -384.7270 ha        1 DQB      0.204000
     43 H8       -215.0990   50.7760 -385.5640 h1        1 DQB      0.192000
     44 HA21     -214.3000   50.9790 -388.1190 hn        1 DQB      0.301000
     45 HA22     -214.5620   49.1590 -389.7380 hn        1 DQB      0.282500
     46 H91      -211.3010   47.0920 -382.9300 ha        1 DQB      0.001500
     47 H92      -211.0740   47.7010 -383.1250 ha        1 DQB      0.001500
     48 NA2      -214.2980   48.5170 -389.0220 n3        1 DQB     -0.351000
     49 H2        166.9810  -38.9890  300.9190 ha        1 DQB      0.128000
     50 H102      165.6970  -38.1850  311.3200 hc        1 DQB      0.100000
     51 HA23     -214.2310   47.5520 -389.2610 hn        1 DQB      0.282500
     52 OA4      -212.9930   47.4950 -384.6720 o         1 DQB     -0.216000
@<TRIPOS>BOND
     1    1    2 1   
     2    1   31 1   
     3    1   39 1   
     4    1   50 1   
     5    2    3 1   
     6    2   28 1   
     7    2   29 1   
     8    3    4 1   
     9    4    7 1   
    10    5    6 1   
    11    5   30 1   
    12    5   49 1   
    13    6   11 1   
    14    6   32 1   
    15    7    8 1   
    16    7    9 1   
    17    8   10 1   
    18    9   33 1   
    19    9   34 1   
    20   10   11 1   
    21   10   35 1   
    22   10   36 1   
    23   11   37 1   
    24   11   38 1   
    25   12   15 1   
    26   13   14 1   
    27   16   27 1   
    28   17   18 1   
    29   17   26 1   
    30   17   44 1   
    31   18   19 1   
    32   18   48 1   
    33   19   20 1   
    34   19   40 1   
    35   20   25 1   
    36   20   52 1   
    37   21   22 1   
    38   21   25 1   
    39   21   41 1   
    40   22   23 1   
    41   22   27 1   
    42   23   24 1   
    43   23   42 1   
    44   24   26 1   
    45   25   26 1   
    46   26   43 1   
    47   45   48 1   
    48   46   47 1   
    49   48   51 1   
@<TRIPOS>SUBSTRUCTURE
     1 DQB         1 TEMP              0 ****  ****    0 ROOT
