@<TRIPOS>MOLECULE
DQD
   61    64     1     0     0
SMALL
bcc


@<TRIPOS>ATOM
      1 FBE          0.0000     0.0000     0.0000 f          1 DQD      -0.208300
      2 CBD          1.3990     0.0000     0.0000 c3         1 DQD       0.641200
      3 FBF          1.8650     0.0000     1.3190 f          1 DQD      -0.208300
      4 FBG          1.8650    -1.1430    -0.6590 f          1 DQD      -0.208300
      5 CBB          1.9020     1.2290    -0.7110 ca         1 DQD      -0.189300
      6 CBC          3.2600     1.4440    -0.8420 ca         1 DQD      -0.044000
      7 CBA          1.0030     2.1400    -1.2370 ca         1 DQD      -0.069000
      8 CAZ          1.4600     3.2690    -1.8910 ca         1 DQD      -0.086000
      9 CAY          2.8170     3.4910    -2.0200 ca         1 DQD      -0.113000
     10 CAX          3.7220     2.5770    -1.4970 ca         1 DQD      -0.069400
     11 NAW          5.0980     2.7990    -1.6310 ns         1 DQD      -0.079100
     12 CAU          5.9370     1.7530    -1.7710 c          1 DQD       0.588100
     13 OAV          5.4930     0.6270    -1.8790 o          1 DQD      -0.679100
     14 NAJ          7.2700     1.9570    -1.7920 n          1 DQD      -0.163800
     15 CAG          8.1830     0.8210    -1.9440 c3         1 DQD       0.057700
     16 CAH          7.8920     0.1060    -3.2670 c3         1 DQD      -0.066900
     17 CAI          8.8070    -1.1150    -3.3920 c3         1 DQD       0.160800
     18 CAF          7.9770    -0.1600    -0.7860 c3         1 DQD      -0.066900
     19 CAE          8.8880    -1.3730    -0.9830 c3         1 DQD       0.160800
     20 NAD          8.5710    -2.0230    -2.2610 n3         1 DQD      -0.531600
     21 CAC          9.3320    -3.2700    -2.4210 c3         1 DQD       0.151800
     22 CAB          8.8770    -4.2820    -1.3680 c3         1 DQD      -0.038400
     23 CAA          9.6670    -5.5820    -1.5340 c3         1 DQD       0.007900
     24 CAK          7.8050     3.3140    -1.6610 c3         1 DQD       0.110300
     25 CAL          8.0340     3.6260    -0.2040 ca         1 DQD      -0.133300
     26 CAT          7.0220     4.1960     0.5460 ca         1 DQD      -0.084000
     27 CAS          7.2280     4.4780     1.8870 ca         1 DQD       0.064100
     28 OAR          6.4110     5.0280     2.8310 os         1 DQD      -0.312900
     29 CAQ          7.0090     4.6950     4.0980 c3         1 DQD       0.432200
     30 OAP          8.4090     4.5540     3.7890 os         1 DQD      -0.312900
     31 CAO          8.4560     4.1870     2.4750 ca         1 DQD       0.066100
     32 CAN          9.4660     3.6170     1.7160 ca         1 DQD      -0.084000
     33 CAM          9.2530     3.3370     0.3800 ca         1 DQD      -0.081000
     34 H1           3.9640     0.7300    -0.4330 ha         1 DQD       0.154000
     35 H2          -0.0610     1.9670    -1.1370 ha         1 DQD       0.120000
     36 H3           0.7530     3.9800    -2.3000 ha         1 DQD       0.108000
     37 H4           3.1750     4.3760    -2.5320 ha         1 DQD       0.105000
     38 H5           5.4530     3.7330    -1.6760 hn         1 DQD       0.179500
     39 H6           9.2080     1.1710    -1.9420 h1         1 DQD       0.026700
     40 H7           6.8570    -0.2150    -3.2830 hc         1 DQD       0.045200
     41 H8           8.0790     0.7830    -4.0910 hc         1 DQD       0.045200
     42 H9           9.8410    -0.7920    -3.3840 h1         1 DQD       0.007200
     43 H10          8.5920    -1.6320    -4.3190 h1         1 DQD       0.007200
     44 H11          6.9440    -0.4850    -0.7680 hc         1 DQD       0.045200
     45 H12          8.2240     0.3280     0.1490 hc         1 DQD       0.045200
     46 H13          9.9220    -1.0480    -0.9920 h1         1 DQD       0.007200
     47 H14          8.7320    -2.0750    -0.1740 h1         1 DQD       0.007200
     48 H16          9.1580    -3.6750    -3.4100 h1         1 DQD       0.006700
     49 H17         10.3880    -3.0670    -2.2940 h1         1 DQD       0.006700
     50 H18          7.8200    -4.4840    -1.4950 hc         1 DQD       0.022700
     51 H19          9.0510    -3.8770    -0.3790 hc         1 DQD       0.022700
     52 H20          9.4880    -5.9900    -2.5210 hc         1 DQD       0.000033
     53 H21         10.7250    -5.3790    -1.4130 hc         1 DQD       0.000033
     54 H22          9.3490    -6.2960    -0.7840 hc         1 DQD       0.000033
     55 H23          7.0990     4.0230    -2.0760 h1         1 DQD       0.027200
     56 H24          8.7440     3.3850    -2.1970 h1         1 DQD       0.027200
     57 H25          6.0720     4.4330     0.0830 ha         1 DQD       0.112000
     58 H26          6.6150     3.7510     4.4540 h2         1 DQD       0.017700
     59 H27         10.4220     3.3890     2.1720 ha         1 DQD       0.116000
     60 H28         10.0470     2.9000    -0.2130 ha         1 DQD       0.112000
     61 H15          6.8680     5.5100     4.7970 h2         1 DQD       0.017700
@<TRIPOS>BOND
     1     1     2 1   
     2     2     3 1   
     3     2     4 1   
     4     2     5 1   
     5     5     6 ar  
     6     5     7 ar  
     7     6    10 ar  
     8     6    34 1   
     9     7     8 ar  
    10     7    35 1   
    11     8     9 ar  
    12     8    36 1   
    13     9    10 ar  
    14     9    37 1   
    15    10    11 1   
    16    11    12 1   
    17    11    38 1   
    18    12    13 2   
    19    12    14 1   
    20    14    15 1   
    21    14    24 1   
    22    15    16 1   
    23    15    18 1   
    24    15    39 1   
    25    16    17 1   
    26    16    40 1   
    27    16    41 1   
    28    17    20 1   
    29    17    42 1   
    30    17    43 1   
    31    18    19 1   
    32    18    44 1   
    33    18    45 1   
    34    19    20 1   
    35    19    46 1   
    36    19    47 1   
    37    20    21 1   
    38    21    22 1   
    39    21    48 1   
    40    21    49 1   
    41    22    23 1   
    42    22    50 1   
    43    22    51 1   
    44    23    52 1   
    45    23    53 1   
    46    23    54 1   
    47    24    25 1   
    48    24    55 1   
    49    24    56 1   
    50    25    26 ar  
    51    25    33 ar  
    52    26    27 ar  
    53    26    57 1   
    54    27    28 1   
    55    27    31 ar  
    56    28    29 1   
    57    29    30 1   
    58    29    58 1   
    59    29    61 1   
    60    30    31 1   
    61    31    32 ar  
    62    32    33 ar  
    63    32    59 1   
    64    33    60 1   
@<TRIPOS>SUBSTRUCTURE
     1 DQD         1 TEMP              0 ****  ****    0 ROOT
