@<TRIPOS>MOLECULE
molecule
   52    55     1     0     0
SMALL
bcc


@<TRIPOS>ATOM
      1 C10          0.0000     0.0000     0.0000 ca         1 DQG      -0.141000
      2 C13          1.3800    -0.0110     2.3960 ca         1 DQG       0.036400
      3 C17          4.5770     2.5330    -1.3400 c3         1 DQG       0.163800
      4 C20          1.2380     2.7420    -3.0680 c3         1 DQG      -0.077900
      5 C21          1.7250     2.7610    -4.5190 c3         1 DQG      -0.082400
      6 C24          2.9340     1.8310    -4.6550 c3         1 DQG      -0.077900
      7 C26          4.2390    -2.2610     0.2570 cc         1 DQG      -0.282800
      8 C03          5.2870    -4.4000     2.9900 ca         1 DQG      -0.087600
      9 C04          4.8330    -3.3380     2.1920 ca         1 DQG      -0.112500
     10 C06          4.0760    -1.4260     1.2970 cd         1 DQG      -0.084300
     11 C19          2.3820     3.1640    -2.1430 c3         1 DQG       0.163800
     12 C25          4.0300     2.2800    -3.6860 c3         1 DQG       0.163800
     13 C27          4.7350    -3.5290     0.7990 ca         1 DQG       0.379100
     14 C29          5.4990    -5.7010     0.9800 ca         1 DQG       0.364200
     15 C30          5.6250    -5.5990     2.3560 ca         1 DQG      -0.213300
     16 N05          4.4260    -2.0570     2.4600 na         1 DQG      -0.144400
     17 N18          3.5140     2.2420    -2.3110 n3         1 DQG      -0.715600
     18 N28          5.0690    -4.6920     0.2530 nb         1 DQG      -0.689000
     19 O01          5.1120    -3.2030     4.9870 o          1 DQG      -0.839800
     20 O15          4.0600     0.5810    -0.0130 os         1 DQG      -0.393600
     21 O31          5.8470    -5.2850     5.2010 o          1 DQG      -0.839800
     22 C07          3.5800    -0.0070     1.1980 c3         1 DQG       0.256600
     23 C08          2.0730     0.0000     1.1980 ca         1 DQG      -0.099300
     24 C09          1.3820     0.0000     0.0000 ca         1 DQG      -0.088000
     25 C11         -0.6920     0.0010     1.1970 ca         1 DQG      -0.127000
     26 C12         -0.0030    -0.0050     2.3950 ca         1 DQG      -0.128000
     27 Cl1          2.2480    -0.0180     3.8990 cl         1 DQG      -0.095400
     28 H1          -0.5410     0.0020    -0.9380 ha         1 DQG       0.125000
     29 H2           5.4940     2.0500    -1.6540 h1         1 DQG       0.041700
     30 H3           4.7330     3.6040    -1.2860 h1         1 DQG       0.041700
     31 H6           0.9310     2.4190    -5.1710 hc         1 DQG       0.034700
     32 H7           2.0130     3.7700    -4.7890 hc         1 DQG       0.034700
     33 H8           2.6370     0.8170    -4.4190 hc         1 DQG       0.047950
     34 H9           3.3110     1.8760    -5.6700 hc         1 DQG       0.047950
     35 H10          4.0420    -2.0390    -0.7850 ha         1 DQG       0.152000
     36 H13          2.0430     3.1340    -1.1140 h1         1 DQG       0.031450
     37 H14          2.6960     4.1690    -2.3950 h1         1 DQG       0.031450
     38 H15          4.8790     1.6130    -3.7700 h1         1 DQG       0.031450
     39 H16          4.3330     3.2910    -3.9290 h1         1 DQG       0.031450
     40 H17          5.7620    -6.6320     0.4920 h4         1 DQG      -0.003900
     41 H18          5.9810    -6.4420     2.9360 ha         1 DQG       0.158000
     42 H19          4.3910    -1.6440     3.3710 hn         1 DQG       0.326700
     43 H22          3.9440     0.5620     2.0450 h1         1 DQG       0.054700
     44 H23          1.9240     0.0040    -0.9380 ha         1 DQG       0.166000
     45 H24         -1.7750     0.0030     1.1960 ha         1 DQG       0.124000
     46 H25         -0.5450    -0.0090     3.3320 ha         1 DQG       0.139000
     47 C02          5.4090    -4.2530     4.4550 c          1 DQG       0.889200
     48 H4           0.9170     1.7400    -2.8090 hc         1 DQG       0.047950
     49 C16          4.1700     2.0050     0.0370 c3         1 DQG       0.140400
     50 H5           0.4110     3.4330    -2.9560 hc         1 DQG       0.047950
     51 H11          4.9210     2.2840     0.7670 h1         1 DQG       0.025700
     52 H12          3.2150     2.4320     0.3200 h1         1 DQG       0.025700
@<TRIPOS>BOND
     1     6    12 1
     2     6     5 1
     3    12    17 1
     4     5     4 1
     5    11     4 1
     6    11    17 1
     7    17     3 1
     8     3    49 1
     9    49    20 1
    10    20    22 1
    11     7    13 1
    12     7    10 2
    13    24     1 ar
    14    24    23 ar
    15    18    13 ar
    16    18    14 ar
    17     1    25 ar
    18    22    10 1
    19    22    23 1
    20    13     9 ar
    21    10    16 1
    22    23     2 ar
    23    14    15 ar
    24    25    26 ar
    25     9    16 1
    26     9     8 ar
    27     2    26 ar
    28     2    27 1
    29    15     8 ar
    30     8    47 1
    31    47    19 1
    32    47    21 1
    33     1    28 1
    34     3    29 1
    35     3    30 1
    36     4    48 1
    37     4    50 1
    38     5    31 1
    39     5    32 1
    40     6    33 1
    41     6    34 1
    42     7    35 1
    43    49    51 1
    44    49    52 1
    45    11    36 1
    46    11    37 1
    47    12    38 1
    48    12    39 1
    49    14    40 1
    50    15    41 1
    51    16    42 1
    52    22    43 1
    53    24    44 1
    54    25    45 1
    55    26    46 1
@<TRIPOS>SUBSTRUCTURE
     1 DQG         1 TEMP              0 ****  ****    0 ROOT
