@<TRIPOS>MOLECULE
DQG
   52    55     1     0     0
SMALL
bcc


@<TRIPOS>ATOM
      1 C10          0.0000     0.0000     0.0000 ca         1 DQG      -0.115000
      2 C13          1.3800    -0.0110     2.3960 ca         1 DQG      -0.030600
      3 C17          4.5770     2.5330    -1.3400 c3         1 DQG       0.146800
      4 C20          1.2380     2.7420    -3.0680 c3         1 DQG      -0.025400
      5 C21          1.7250     2.7610    -4.5190 c3         1 DQG      -0.026400
      6 C24          2.9340     1.8310    -4.6550 c3         1 DQG      -0.025400
      7 C26          4.2390    -2.2610     0.2570 cc         1 DQG      -0.262800
      8 C03          5.2870    -4.4000     2.9900 ca         1 DQG      -0.076600
      9 C04          4.8330    -3.3380     2.1920 ca         1 DQG      -0.294500
     10 C06          4.0760    -1.4260     1.2970 cd         1 DQG      -0.300300
     11 C19          2.3820     3.1640    -2.1430 c3         1 DQG       0.149800
     12 C25          4.0300     2.2800    -3.6860 c3         1 DQG       0.149800
     13 C27          4.7350    -3.5290     0.7990 ca         1 DQG       0.328100
     14 C29          5.4990    -5.7010     0.9800 ca         1 DQG       0.336200
     15 C30          5.6250    -5.5990     2.3560 ca         1 DQG      -0.187300
     16 N05          4.4260    -2.0570     2.4600 na         1 DQG       0.397600
     17 N18          3.5140     2.2420    -2.3110 n3         1 DQG      -0.522600
     18 N28          5.0690    -4.6920     0.2530 nb         1 DQG      -0.567000
     19 O01          5.1120    -3.2030     4.9870 o          1 DQG      -0.888800
     20 O15          4.0600     0.5810    -0.0130 os         1 DQG      -0.377600
     21 O31          5.8470    -5.2850     5.2010 o          1 DQG      -0.888800
     22 C07          3.5800    -0.0070     1.1980 c3         1 DQG       0.324600
     23 C08          2.0730     0.0000     1.1980 ca         1 DQG      -0.112300
     24 C09          1.3820     0.0000     0.0000 ca         1 DQG      -0.065000
     25 C11         -0.6920     0.0010     1.1970 ca         1 DQG      -0.101000
     26 C12         -0.0030    -0.0050     2.3950 ca         1 DQG      -0.106000
     27 Cl1          2.2480    -0.0180     3.8990 cl         1 DQG      -0.007400
     28 H1          -0.5410     0.0020    -0.9380 ha         1 DQG       0.098000
     29 H2           5.4940     2.0500    -1.6540 h1         1 DQG       0.014200
     30 H3           4.7330     3.6040    -1.2860 h1         1 DQG       0.014200
     31 H6           0.9310     2.4190    -5.1710 hc         1 DQG       0.007700
     32 H7           2.0130     3.7700    -4.7890 hc         1 DQG       0.007700
     33 H8           2.6370     0.8170    -4.4190 hc         1 DQG       0.018950
     34 H9           3.3110     1.8760    -5.6700 hc         1 DQG       0.018950
     35 H10          4.0420    -2.0390    -0.7850 ha         1 DQG       0.127000
     36 H13          2.0430     3.1340    -1.1140 h1         1 DQG       0.007700
     37 H14          2.6960     4.1690    -2.3950 h1         1 DQG       0.007700
     38 H15          4.8790     1.6130    -3.7700 h1         1 DQG       0.007700
     39 H16          4.3330     3.2910    -3.9290 h1         1 DQG       0.007700
     40 H17          5.7620    -6.6320     0.4920 h4         1 DQG      -0.041900
     41 H18          5.9810    -6.4420     2.9360 ha         1 DQG       0.134000
     42 H19          4.3910    -1.6440     3.3710 hn         1 DQG       0.150700
     43 H22          3.9440     0.5620     2.0450 h1         1 DQG       0.014700
     44 H23          1.9240     0.0040    -0.9380 ha         1 DQG       0.136000
     45 H24         -1.7750     0.0030     1.1960 ha         1 DQG       0.096000
     46 H25         -0.5450    -0.0090     3.3320 ha         1 DQG       0.110000
     47 C02          5.4090    -4.2530     4.4550 c          1 DQG       0.983200
     48 H4           0.9170     1.7400    -2.8090 hc         1 DQG       0.018950
     49 C16          4.1700     2.0050     0.0370 c3         1 DQG       0.200400
     50 H5           0.4110     3.4330    -2.9560 hc         1 DQG       0.018950
     51 H11          4.9210     2.2840     0.7670 h1         1 DQG      -0.005800
     52 H12          3.2150     2.4320     0.3200 h1         1 DQG      -0.005800
@<TRIPOS>BOND
     1     1    24 ar  
     2     1    25 ar  
     3     1    28 1   
     4     2    23 ar  
     5     2    26 ar  
     6     2    27 1   
     7     3    17 1   
     8     3    29 1   
     9     3    30 1   
    10     3    49 1   
    11     4     5 1   
    12     4    11 1   
    13     4    48 1   
    14     4    50 1   
    15     5     6 1   
    16     5    31 1   
    17     5    32 1   
    18     6    12 1   
    19     6    33 1   
    20     6    34 1   
    21     7    10 2   
    22     7    13 1   
    23     7    35 1   
    24     8     9 ar  
    25     8    15 ar  
    26     8    47 1   
    27     9    13 ar  
    28     9    16 1   
    29    10    16 1   
    30    10    22 1   
    31    11    17 1   
    32    11    36 1   
    33    11    37 1   
    34    12    17 1   
    35    12    38 1   
    36    12    39 1   
    37    13    18 ar  
    38    14    15 ar  
    39    14    18 ar  
    40    14    40 1   
    41    15    41 1   
    42    16    42 1   
    43    19    47 1   
    44    20    22 1   
    45    20    49 1   
    46    21    47 1   
    47    22    23 1   
    48    22    43 1   
    49    23    24 ar  
    50    24    44 1   
    51    25    26 ar  
    52    25    45 1   
    53    26    46 1   
    54    49    51 1   
    55    49    52 1   
@<TRIPOS>SUBSTRUCTURE
     1 DQG         1 TEMP              0 ****  ****    0 ROOT
