@<TRIPOS>MOLECULE
DQH
   34    36     1     0     0
SMALL
bcc


@<TRIPOS>ATOM
      1 C1         -0.0180    0.2770   -0.0010 ca        1 DQH     -0.358000
      2 C2          1.3780    0.1450   -0.0080 ca        1 DQH      0.256100
      3 C3          2.1060   -0.0540    1.1870 ca        1 DQH     -0.304600
      4 C4          1.3750   -0.1330    2.3920 ca        1 DQH      0.234100
      5 C5         -0.0190   -0.0070    2.4300 ca        1 DQH     -0.239000
      6 C6         -0.6980    0.2030    1.2220 ca        1 DQH      0.226100
      7 C9          3.5590   -0.1670    1.2020 c         1 DQH      0.565700
      8 C10         4.1980   -0.1660    2.5850 c3        1 DQH      0.024100
      9 C11         3.2960   -0.8750    3.6100 c3        1 DQH      0.204400
     10 C14         3.8280   -0.7610    5.0080 ca        1 DQH     -0.092300
     11 C15         3.2490    0.0940    5.9490 ca        1 DQH     -0.102000
     12 C16         3.7540    0.1610    7.2460 ca        1 DQH     -0.178000
     13 C17         4.8480   -0.6310    7.6020 ca        1 DQH      0.049100
     14 C18         5.4410   -1.4930    6.6530 ca        1 DQH      0.106100
     15 C19         4.9270   -1.5560    5.3540 ca        1 DQH     -0.104000
     16 O12         1.9760   -0.2900    3.6190 os        1 DQH     -0.317900
     17 O13         4.2810   -0.2380    0.2010 o         1 DQH     -0.517100
     18 O23         6.5190   -2.2960    6.9460 oh        1 DQH     -0.492100
     19 O24         5.4120   -0.6310    8.8610 oh        1 DQH     -0.516100
     20 O27         5.4370   -0.8550    2.5770 oh        1 DQH     -0.588800
     21 O29        -2.0600    0.3260    1.3080 oh        1 DQH     -0.483100
     22 O30         2.0980    0.2160   -1.1670 oh        1 DQH     -0.455100
     23 H1         -0.5660    0.4350   -0.9390 ha        1 DQH      0.143000
     24 H5         -0.5650   -0.0700    3.3810 ha        1 DQH      0.175000
     25 H10         4.3700    0.9040    2.8960 h1        1 DQH      0.078700
     26 H11         3.1920   -1.9610    3.3250 h1        1 DQH      0.079700
     27 H15         2.3830    0.7140    5.6700 ha        1 DQH      0.151000
     28 H16         3.2960    0.8320    7.9860 ha        1 DQH      0.136000
     29 H19         5.4070   -2.2090    4.6080 ha        1 DQH      0.172000
     30 H23         6.7710   -2.1310    7.8680 ho        1 DQH      0.436000
     31 H24         4.9230    0.0030    9.4040 ho        1 DQH      0.430000
     32 H27         5.8570   -0.6810    1.7200 ho        1 DQH      0.432000
     33 H29        -2.4120    0.4550    0.4140 ho        1 DQH      0.427000
     34 H30         1.4810    0.3520   -1.9030 ho        1 DQH      0.424000
@<TRIPOS>BOND
     1    1    2 ar  
     2    1    6 ar  
     3    1   23 1   
     4    2    3 ar  
     5    2   22 1   
     6    3    4 ar  
     7    3    7 1   
     8    4    5 ar  
     9    4   16 1   
    10    5    6 ar  
    11    5   24 1   
    12    6   21 1   
    13    7    8 1   
    14    7   17 2   
    15    8    9 1   
    16    8   20 1   
    17    8   25 1   
    18    9   10 1   
    19    9   16 1   
    20    9   26 1   
    21   10   11 ar  
    22   10   15 ar  
    23   11   12 ar  
    24   11   27 1   
    25   12   13 ar  
    26   12   28 1   
    27   13   14 ar  
    28   13   19 1   
    29   14   15 ar  
    30   14   18 1   
    31   15   29 1   
    32   18   30 1   
    33   19   31 1   
    34   20   32 1   
    35   21   33 1   
    36   22   34 1   
@<TRIPOS>SUBSTRUCTURE
     1 DQH         1 TEMP              0 ****  ****    0 ROOT
