@<TRIPOS>MOLECULE
molecule
   34    36     1     0     0
SMALL
bcc


@<TRIPOS>ATOM
      1 C1           0.0000     0.0000     0.0000 ca         1 DQH      -0.256000
      2 C2           1.3820     0.0000     0.0000 ca         1 DQH       0.217100
      3 C3           2.0750     0.0000     1.2210 ca         1 DQH      -0.280600
      4 C4           1.3790     0.0380     2.4400 ca         1 DQH       0.190100
      5 C5          -0.0100     0.0310     2.4130 ca         1 DQH      -0.215000
      6 C6          -0.6900     0.0100     1.2060 ca         1 DQH       0.186100
      7 C9           3.5460    -0.0530     1.2320 c          1 DQH       0.551700
      8 C10          4.1890     0.1040     2.6010 c3         1 DQH       0.029100
      9 C11          3.2470    -0.5930     3.5940 c3         1 DQH       0.194400
     10 C14          3.8690    -0.5770     4.9670 ca         1 DQH      -0.087300
     11 C15          3.6190     0.4760     5.8250 ca         1 DQH      -0.103000
     12 C16          4.1870     0.4950     7.0860 ca         1 DQH      -0.158000
     13 C17          5.0060    -0.5450     7.4920 ca         1 DQH       0.099100
     14 C18          5.2580    -1.6060     6.6280 ca         1 DQH       0.088100
     15 C19          4.6820    -1.6210     5.3680 ca         1 DQH      -0.120000
     16 O12          2.0010     0.0830     3.6350 os         1 DQH      -0.290900
     17 O13          4.1980    -0.2130     0.2210 o          1 DQH      -0.479100
     18 O23          6.0630    -2.6290     7.0220 oh         1 DQH      -0.507100
     19 O24          5.5650    -0.5280     8.7320 oh         1 DQH      -0.511100
     20 O27          5.4730    -0.5210     2.6160 oh         1 DQH      -0.576800
     21 O29         -2.0470    -0.0010     1.2010 oh         1 DQH      -0.519100
     22 O30          2.0640    -0.0010    -1.1720 oh         1 DQH      -0.484100
     23 H1          -0.5430    -0.0160    -0.9370 ha         1 DQH       0.154000
     24 H5          -0.5650     0.0390     3.3430 ha         1 DQH       0.160000
     25 H10          4.2780     1.1550     2.8500 h1         1 DQH       0.071700
     26 H11          3.0890    -1.6170     3.2780 h1         1 DQH       0.074700
     27 H15          2.9780     1.2900     5.5090 ha         1 DQH       0.146000
     28 H16          3.9890     1.3230     7.7570 ha         1 DQH       0.144000
     29 H19          4.8760    -2.4460     4.6940 ha         1 DQH       0.153000
     30 H23          5.5360    -3.3840     7.2230 ho         1 DQH       0.423000
     31 H24          6.2700     0.0980     8.7500 ho         1 DQH       0.424000
     32 H27          6.1150     0.0680     2.2570 ho         1 DQH       0.421000
     33 H29         -2.3540    -0.8920     1.2080 ho         1 DQH       0.431000
     34 H30          1.8100     0.7490    -1.6840 ho         1 DQH       0.430000
@<TRIPOS>BOND
     1     1     2 ar
     2     1     6 ar
     3     1    23 1
     4     2     3 ar
     5     2    22 1
     6     3     4 ar
     7     3     7 1
     8     4     5 ar
     9     4    16 1
    10     5     6 ar
    11     5    24 1
    12     6    21 1
    13     7     8 1
    14     7    17 2
    15     8     9 1
    16     8    20 1
    17     8    25 1
    18     9    10 1
    19     9    16 1
    20     9    26 1
    21    10    11 ar
    22    10    15 ar
    23    11    12 ar
    24    11    27 1
    25    12    13 ar
    26    12    28 1
    27    13    14 ar
    28    13    19 1
    29    14    15 ar
    30    14    18 1
    31    15    29 1
    32    18    30 1
    33    19    31 1
    34    20    32 1
    35    21    33 1
    36    22    34 1
@<TRIPOS>SUBSTRUCTURE
     1 DQH         1 TEMP              0 ****  ****    0 ROOT
