@<TRIPOS>MOLECULE
DQJ
   43    45     1     0     0
SMALL
bcc


@<TRIPOS>ATOM
      1 C02          0.0000     0.0000     0.0000 c          1 DQJ       0.554600
      2 C03          1.4780     0.0000     0.0000 cc         1 DQJ       0.255800
      3 C04          2.3190     0.0000     1.1370 cc         1 DQJ      -0.204300
      4 C05          3.5830    -0.0010     0.6530 cd         1 DQJ      -0.345600
      5 C06          4.8520    -0.0020     1.4660 c3         1 DQJ       0.047600
      6 C07          5.9180    -0.8300     0.7450 c3         1 DQJ      -0.000600
      7 C08          5.3500     1.4340     1.6340 c3         1 DQJ      -0.000600
      8 C12         -0.0650    -0.0020    -2.5110 c3         1 DQJ       0.039000
      9 C13         -1.1460     0.6110    -3.4360 c3         1 DQJ      -0.049400
     10 C14         -2.4460     0.0270    -2.8240 c3         1 DQJ       0.005700
     11 C17         -6.0110     1.2910    -3.4170 cx         1 DQJ      -0.218700
     12 C18         -6.9890     1.5640    -2.2720 cx         1 DQJ      -0.049900
     13 C19         -7.4020     0.6540    -3.4300 cx         1 DQJ      -0.049900
     14 C21         -2.1360     0.0010    -1.3130 c3         1 DQJ       0.040000
     15 N09          3.4940    -0.0020    -0.6950 na         1 DQJ       0.576400
     16 N10          2.2620    -0.0070    -1.0580 nd         1 DQJ      -0.666800
     17 N11         -0.6740     0.0000    -1.1680 n          1 DQJ      -0.147800
     18 O01         -0.6080    -0.0040     1.0520 o          1 DQJ      -0.649100
     19 O20         -5.0140    -0.7890    -2.9200 o          1 DQJ      -0.646100
     20 H1           2.0240    -0.2560     2.1480 ha         1 DQJ       0.152000
     21 H2           4.6570    -0.4330     2.4400 hc         1 DQJ       0.041700
     22 H3           5.4890    -1.7710     0.4250 hc         1 DQJ       0.006700
     23 H4           6.7440    -1.0200     1.4190 hc         1 DQJ       0.006700
     24 H5           6.2760    -0.2840    -0.1200 hc         1 DQJ       0.006700
     25 H6           4.6030     2.0170     2.1600 hc         1 DQJ       0.006700
     26 H7           6.2720     1.4320     2.2040 hc         1 DQJ       0.006700
     27 H8           5.5290     1.8720     0.6590 hc         1 DQJ       0.006700
     28 H9           0.8280     0.6120    -2.5190 h1         1 DQJ       0.037200
     29 H10          0.1630    -1.0150    -2.8190 h1         1 DQJ       0.037200
     30 H11         -1.0150     0.2740    -4.4570 hc         1 DQJ       0.027200
     31 H12         -1.1410     1.6920    -3.3720 hc         1 DQJ       0.027200
     32 H13         -2.6230    -0.9760    -3.1930 h1         1 DQJ       0.069700
     33 H14         -5.8830     2.1140    -4.1090 hc         1 DQJ       0.060700
     34 H15         -6.7680     1.0610    -1.3380 hc         1 DQJ       0.052200
     35 H16         -7.4410     2.5490    -2.2680 hc         1 DQJ       0.052200
     36 H17         -7.4330    -0.4050    -3.2040 hc         1 DQJ       0.052200
     37 H18         -8.1050     1.0820    -4.1340 hc         1 DQJ       0.052200
     38 H19         -2.5520     0.8810    -0.8380 h1         1 DQJ       0.031700
     39 H20         -2.5500    -0.8960    -0.8690 h1         1 DQJ       0.031700
     40 H21          4.2750    -0.0040    -1.3200 hn         1 DQJ       0.136700
     41 H22         -3.4400     1.8720    -3.2980 hn         1 DQJ       0.175500
     42 N15         -3.5890     0.9010    -3.1050 ns         1 DQJ      -0.181900
     43 C16         -4.8370     0.3930    -3.1290 c          1 DQJ       0.615100
@<TRIPOS>BOND
     1     1     2 1   
     2     1    17 1   
     3     1    18 2   
     4     2     3 1   
     5     2    16 2   
     6     3     4 2   
     7     3    20 1   
     8     4     5 1   
     9     4    15 1   
    10     5     6 1   
    11     5     7 1   
    12     5    21 1   
    13     6    22 1   
    14     6    23 1   
    15     6    24 1   
    16     7    25 1   
    17     7    26 1   
    18     7    27 1   
    19     8     9 1   
    20     8    17 1   
    21     8    28 1   
    22     8    29 1   
    23     9    10 1   
    24     9    30 1   
    25     9    31 1   
    26    10    14 1   
    27    10    32 1   
    28    10    42 1   
    29    11    12 1   
    30    11    13 1   
    31    11    33 1   
    32    11    43 1   
    33    12    13 1   
    34    12    34 1   
    35    12    35 1   
    36    13    36 1   
    37    13    37 1   
    38    14    17 1   
    39    14    38 1   
    40    14    39 1   
    41    15    16 1   
    42    15    40 1   
    43    19    43 2   
    44    41    42 1   
    45    42    43 1   
@<TRIPOS>SUBSTRUCTURE
     1 DQJ         1 TEMP              0 ****  ****    0 ROOT
