@<TRIPOS>MOLECULE
molecule
   51    52     1     0     0
SMALL
bcc


@<TRIPOS>ATOM
      1 CA           1.5300     0.0000     0.0000 c3         1 DQK      -0.023500
      2 C            2.0320     0.0000     1.4210 c          1 DQK       0.563900
      3 N            2.0200    -1.2000    -0.6920 nz         1 DQK      -0.802600
      4 O            2.7270    -0.9050     1.8160 o          1 DQK      -0.490100
      5 CB           0.0000     0.0000     0.0000 c3         1 DQK      -0.104400
      6 CAD         -0.5100     0.1250    -1.4370 c3         1 DQK      -0.092400
      7 CAE         -2.0410     0.1250    -1.4370 c3         1 DQK      -0.098400
      8 CAF         -2.5490     0.2510    -2.8740 c3         1 DQK       0.119000
      9 NAG         -4.0150     0.2510    -2.8750 ns         1 DQK      -0.608900
     10 CAJ         -4.6890     0.3520    -4.0370 c          1 DQK       0.645100
     11 OAN         -4.0820     0.4440    -5.0840 o          1 DQK      -0.591100
     12 CAK         -6.1960     0.3520    -4.0370 c3         1 DQK      -0.114400
     13 CAL         -6.7060     0.4770    -5.4740 c3         1 DQK      -0.074600
     14 CAM         -8.2080     0.3540    -5.4870 c          1 DQK       0.885600
     15 OAP         -8.9540     1.1660    -4.7210 o          1 DQK      -0.817300
     16 OAO         -8.7400    -0.4740    -6.1870 o          1 DQK      -0.817300
     17 SAQ         -6.2260     2.0920    -6.1480 ss         1 DQK      -0.245000
     18 CAR         -6.5990     1.9340    -7.8620 ca         1 DQK       0.078900
     19 CAS         -6.4950     3.0330    -8.6870 ca         1 DQK      -0.138000
     20 CAT         -6.7880     2.9010   -10.0540 ca         1 DQK      -0.009000
     21 CAX         -6.6940     3.9980   -10.9280 ca         1 DQK      -0.120000
     22 CAY         -6.9840     3.8360   -12.2480 ca         1 DQK      -0.150000
     23 CAZ         -7.3750     2.5950   -12.7480 ca         1 DQK      -0.163000
     24 CBA         -7.4790     1.5110   -11.9310 ca         1 DQK      -0.106000
     25 CAU         -7.1870     1.6400   -10.5630 ca         1 DQK      -0.039000
     26 CAV         -7.2820     0.5390    -9.6920 ca         1 DQK      -0.112000
     27 CAW         -6.9930     0.6910    -8.3740 ca         1 DQK      -0.109000
     28 H1           1.8920     0.8840    -0.5110 hx         1 DQK       0.136700
     29 H2           1.8010     0.8300     2.0770 h4         1 DQK       0.074200
     30 H3           2.9760    -1.3610    -0.4440 hn         1 DQK       0.462800
     31 H4           1.4680    -1.9890    -0.4220 hn         1 DQK       0.462800
     32 H6          -0.3610     0.8370     0.5860 hc         1 DQK       0.089700
     33 H7          -0.3610    -0.9260     0.4320 hc         1 DQK       0.089700
     34 H8          -0.1490     1.0510    -1.8690 hc         1 DQK       0.045200
     35 H9          -0.1490    -0.7110    -2.0230 hc         1 DQK       0.045200
     36 H10         -2.4020     0.9620    -0.8520 hc         1 DQK       0.057700
     37 H11         -2.4020    -0.8000    -1.0060 hc         1 DQK       0.057700
     38 H12         -2.1880     1.1770    -3.3060 h1         1 DQK       0.049200
     39 H13         -2.1880    -0.5860    -3.4600 h1         1 DQK       0.049200
     40 H14         -4.5160     0.1740    -2.0110 hn         1 DQK       0.312500
     41 H15         -6.5570    -0.5730    -3.6060 hc         1 DQK       0.082700
     42 H16         -6.5580     1.1890    -3.4520 hc         1 DQK       0.082700
     43 H17         -6.2740    -0.3100    -6.0800 h1         1 DQK       0.069700
     44 H19         -6.0660     3.9540    -8.3110 ha         1 DQK       0.131000
     45 H20         -6.3990     5.0120   -10.6870 ha         1 DQK       0.122000
     46 H21         -6.9200     4.6540   -12.9550 ha         1 DQK       0.113000
     47 H22         -7.5920     2.5470   -13.8080 ha         1 DQK       0.113000
     48 H23         -7.7980     0.6270   -12.4700 ha         1 DQK       0.124000
     49 H24         -7.5860    -0.4290   -10.0730 ha         1 DQK       0.130000
     50 H25         -7.0650    -0.1610    -7.7090 ha         1 DQK       0.173000
     51 HN3          1.9400    -1.0700    -1.6810 hn         1 DQK       0.462800
@<TRIPOS>BOND
     1    22    23 ar
     2    22    21 ar
     3    23    24 ar
     4    21    20 ar
     5    24    25 ar
     6    15    14 1
     7    20    25 ar
     8    20    19 ar
     9    16    14 1
    10    25    26 ar
    11    14    13 1
    12    19    18 ar
    13    26    27 ar
    14    18    27 ar
    15    18    17 1
    16    13    12 1
    17    13    17 1
    18    12    10 1
    19    11    10 2
    20    10     9 1
    21     9     8 1
    22     8     7 1
    23     7     6 1
    24     6     5 1
    25     5     1 1
    26     2     4 2
    27     2     1 1
    28     1     3 1
    29     1    28 1
    30     2    29 1
    31     3    30 1
    32     3    31 1
    33     5    32 1
    34     5    33 1
    35     6    34 1
    36     6    35 1
    37     7    36 1
    38     7    37 1
    39     8    38 1
    40     8    39 1
    41     9    40 1
    42    12    41 1
    43    12    42 1
    44    13    43 1
    45    19    44 1
    46    21    45 1
    47    22    46 1
    48    23    47 1
    49    24    48 1
    50    26    49 1
    51    27    50 1
    52    51     3 1
@<TRIPOS>SUBSTRUCTURE
     1 DQK         1 TEMP              0 ****  ****    0 ROOT
