@<TRIPOS>MOLECULE
DQK
   51    52     1     0     0
SMALL
bcc


@<TRIPOS>ATOM
      1 CA           1.5300     0.0000     0.0000 c3         1 DQK      -0.214500
      2 C            2.0320     0.0000     1.4210 c          1 DQK       0.668900
      3 N            2.0200    -1.2000    -0.6920 nz         1 DQK       0.078400
      4 O            2.7270    -0.9050     1.8160 o          1 DQK      -0.522100
      5 CB           0.0000     0.0000     0.0000 c3         1 DQK      -0.030400
      6 CAD         -0.5100     0.1250    -1.4370 c3         1 DQK      -0.033400
      7 CAE         -2.0410     0.1250    -1.4370 c3         1 DQK      -0.035400
      8 CAF         -2.5490     0.2510    -2.8740 c3         1 DQK       0.061000
      9 NAG         -4.0150     0.2510    -2.8750 ns         1 DQK      -0.239900
     10 CAJ         -4.6890     0.3520    -4.0370 c          1 DQK       0.565100
     11 OAN         -4.0820     0.4440    -5.0840 o          1 DQK      -0.621100
     12 CAK         -6.1960     0.3520    -4.0370 c3         1 DQK      -0.050400
     13 CAL         -6.7060     0.4770    -5.4740 c3         1 DQK      -0.024600
     14 CAM         -8.2080     0.3540    -5.4870 c          1 DQK       0.969600
     15 OAP         -8.9540     1.1660    -4.7210 o          1 DQK      -0.862300
     16 OAO         -8.7400    -0.4740    -6.1870 o          1 DQK      -0.862300
     17 SAQ         -6.2260     2.0920    -6.1480 ss         1 DQK      -0.344000
     18 CAR         -6.5990     1.9340    -7.8620 ca         1 DQK       0.109900
     19 CAS         -6.4950     3.0330    -8.6870 ca         1 DQK      -0.101000
     20 CAT         -6.7880     2.9010   -10.0540 ca         1 DQK      -0.013000
     21 CAX         -6.6940     3.9980   -10.9280 ca         1 DQK      -0.089000
     22 CAY         -6.9840     3.8360   -12.2480 ca         1 DQK      -0.131000
     23 CAZ         -7.3750     2.5950   -12.7480 ca         1 DQK      -0.142000
     24 CBA         -7.4790     1.5110   -11.9310 ca         1 DQK      -0.077000
     25 CAU         -7.1870     1.6400   -10.5630 ca         1 DQK      -0.035000
     26 CAV         -7.2820     0.5390    -9.6920 ca         1 DQK      -0.084000
     27 CAW         -6.9930     0.6910    -8.3740 ca         1 DQK      -0.101000
     28 H1           1.8920     0.8840    -0.5110 hx         1 DQK       0.111700
     29 H2           1.8010     0.8300     2.0770 h4         1 DQK       0.028200
     30 H3           2.9760    -1.3610    -0.4440 hn         1 DQK       0.232467
     31 H4           1.4680    -1.9890    -0.4220 hn         1 DQK       0.232467
     32 H6          -0.3610     0.8370     0.5860 hc         1 DQK       0.055700
     33 H7          -0.3610    -0.9260     0.4320 hc         1 DQK       0.055700
     34 H8          -0.1490     1.0510    -1.8690 hc         1 DQK       0.016200
     35 H9          -0.1490    -0.7110    -2.0230 hc         1 DQK       0.016200
     36 H10         -2.4020     0.9620    -0.8520 hc         1 DQK       0.027200
     37 H11         -2.4020    -0.8000    -1.0060 hc         1 DQK       0.027200
     38 H12         -2.1880     1.1770    -3.3060 h1         1 DQK       0.021200
     39 H13         -2.1880    -0.5860    -3.4600 h1         1 DQK       0.021200
     40 H14         -4.5160     0.1740    -2.0110 hn         1 DQK       0.177500
     41 H15         -6.5570    -0.5730    -3.6060 hc         1 DQK       0.049200
     42 H16         -6.5580     1.1890    -3.4520 hc         1 DQK       0.049200
     43 H17         -6.2740    -0.3100    -6.0800 h1         1 DQK       0.055700
     44 H19         -6.0660     3.9540    -8.3110 ha         1 DQK       0.111000
     45 H20         -6.3990     5.0120   -10.6870 ha         1 DQK       0.098000
     46 H21         -6.9200     4.6540   -12.9550 ha         1 DQK       0.091000
     47 H22         -7.5920     2.5470   -13.8080 ha         1 DQK       0.092000
     48 H23         -7.7980     0.6270   -12.4700 ha         1 DQK       0.099000
     49 H24         -7.5860    -0.4290   -10.0730 ha         1 DQK       0.103000
     50 H25         -7.0650    -0.1610    -7.7090 ha         1 DQK       0.159000
     51 HN3          1.9400    -1.0700    -1.6810 hn         1 DQK       0.232467
@<TRIPOS>BOND
     1     1     2 1   
     2     1     3 1   
     3     1     5 1   
     4     1    28 1   
     5     2     4 2   
     6     2    29 1   
     7     3    30 1   
     8     3    31 1   
     9     3    51 1   
    10     5     6 1   
    11     5    32 1   
    12     5    33 1   
    13     6     7 1   
    14     6    34 1   
    15     6    35 1   
    16     7     8 1   
    17     7    36 1   
    18     7    37 1   
    19     8     9 1   
    20     8    38 1   
    21     8    39 1   
    22     9    10 1   
    23     9    40 1   
    24    10    11 2   
    25    10    12 1   
    26    12    13 1   
    27    12    41 1   
    28    12    42 1   
    29    13    14 1   
    30    13    17 1   
    31    13    43 1   
    32    14    15 1   
    33    14    16 1   
    34    17    18 1   
    35    18    19 ar  
    36    18    27 ar  
    37    19    20 ar  
    38    19    44 1   
    39    20    21 ar  
    40    20    25 ar  
    41    21    22 ar  
    42    21    45 1   
    43    22    23 ar  
    44    22    46 1   
    45    23    24 ar  
    46    23    47 1   
    47    24    25 ar  
    48    24    48 1   
    49    25    26 ar  
    50    26    27 ar  
    51    26    49 1   
    52    27    50 1   
@<TRIPOS>SUBSTRUCTURE
     1 DQK         1 TEMP              0 ****  ****    0 ROOT
