@<TRIPOS>MOLECULE
molecule
   53    54     1     0     0
SMALL
bcc


@<TRIPOS>ATOM
      1 OAX          0.0000     0.0000     0.0000 o          1 DQM      -0.762300
      2 CAJ          1.2090     0.0000     0.0000 c          1 DQM       0.905600
      3 OAD          1.8790     0.0000     1.1630 o          1 DQM      -0.762300
      4 CAX          1.9630    -0.0060    -1.3040 c3         1 DQM      -0.138700
      5 CAT          2.0800     1.4250    -1.8320 c3         1 DQM       0.150100
      6 CAA          2.9490     2.2500    -0.8810 c3         1 DQM      -0.115100
      7 OAI          2.6790     1.4060    -3.1290 oh         1 DQM      -0.620800
      8 CAY          1.2120    -0.8660    -2.3230 c3         1 DQM       0.119500
      9 CAU          2.1160    -1.1660    -3.5420 c3         1 DQM      -0.075700
     10 CAB          3.5960    -1.0910    -3.1630 c3         1 DQM      -0.085100
     11 NAN          0.8970    -2.1790    -1.7490 n2         1 DQM      -0.469900
     12 CAS          1.1450    -3.1360    -2.5520 ce         1 DQM       0.335300
     13 CAR          0.9210    -4.5680    -2.2420 c          1 DQM       0.820300
     14 OAE          0.4260    -4.9290    -1.0420 o          1 DQM      -0.782300
     15 OAH          1.1860    -5.4170    -3.0680 o          1 DQM      -0.782300
     16 CAZ          1.6950    -2.6220    -3.8640 c3         1 DQM      -0.042900
     17 SAQ          0.4120    -2.6460    -5.1460 ss         1 DQM      -0.379200
     18 CAW          0.1880    -4.4160    -5.4670 c3         1 DQM       0.021400
     19 CAM          1.3950    -4.9960    -6.2470 c3         1 DQM       0.152800
     20 NAO          0.8570    -6.1790    -6.9510 n7         1 DQM      -0.794200
     21 CAV         -0.5980    -6.0040    -7.1180 c3         1 DQM       0.153500
     22 CAK         -0.9750    -4.6580    -6.4630 c3         1 DQM      -0.081400
     23 CAL         -0.9520    -5.9760    -8.6060 c3         1 DQM       0.191800
     24 NAP         -0.4670    -7.2010    -9.2470 n7         1 DQM      -0.888100
     25 SBA         -1.0170    -7.6240   -10.7500 s6         1 DQM       1.221800
     26 OAF         -0.3420    -8.8240   -11.1020 o          1 DQM      -0.596300
     27 OAG         -2.4330    -7.5140   -10.7040 o          1 DQM      -0.596300
     28 NAC         -0.4920    -6.4640   -11.8090 nz         1 DQM      -0.786500
     29 H2           2.9530    -0.4150    -1.1470 hc         1 DQM       0.077700
     30 H3           1.0940     1.8690    -1.8970 h1         1 DQM       0.036700
     31 H4           3.4430     3.0380    -1.4350 hc         1 DQM       0.037700
     32 H5           3.6930     1.6090    -0.4250 hc         1 DQM       0.037700
     33 H6           2.3260     2.6860    -0.1100 hc         1 DQM       0.037700
     34 H7           2.5500     2.2410    -3.5480 ho         1 DQM       0.375000
     35 H8           0.3040    -0.3710    -2.6440 h1         1 DQM       0.080700
     36 H9           1.8830    -0.5050    -4.3670 hc         1 DQM       0.058700
     37 H10          4.1480    -1.8440    -3.7120 hc         1 DQM       0.040700
     38 H11          3.9820    -0.1090    -3.4100 hc         1 DQM       0.040700
     39 H12          3.7070    -1.2660    -2.1000 hc         1 DQM       0.040700
     40 H14          2.5560    -3.2060    -4.1670 h1         1 DQM       0.073700
     41 H15          0.0270    -4.9660    -4.5470 h1         1 DQM       0.167700
     42 H16          2.1790    -5.2910    -5.5610 h1         1 DQM       0.056700
     43 H17          1.7640    -4.2690    -6.9610 h1         1 DQM       0.056700
     44 H18          1.2880    -6.2580    -7.8500 hn         1 DQM       0.314800
     45 H20         -1.1230    -6.8120    -6.6230 h1         1 DQM       0.091700
     46 H21         -1.9180    -4.7410    -5.9360 hc         1 DQM       0.052700
     47 H22         -1.0120    -3.8700    -7.2060 hc         1 DQM       0.052700
     48 H23         -0.4860    -5.1160    -9.0720 h1         1 DQM       0.040200
     49 H24         -2.0270    -5.9110    -8.7200 h1         1 DQM       0.040200
     50 H25          0.1460    -7.8160    -8.7480 hn         1 DQM       0.486800
     51 H26          0.4910    -6.3180   -11.6840 hn         1 DQM       0.463133
     52 H27         -0.9810    -5.6080   -11.6350 hn         1 DQM       0.463133
     53 HAC3        -0.6680    -6.7640   -12.7470 hn         1 DQM       0.463133
@<TRIPOS>BOND
     1     7     5 1
     2     6     5 1
     3    10     9 1
     4     5     4 1
     5     1     2 1
     6     2     4 1
     7     2     3 1
     8     9    16 1
     9     9     8 1
    10     4     8 1
    11    16    12 1
    12    16    17 1
    13    12    13 1
    14    12    11 2
    15     8    11 1
    16    15    13 1
    17    13    14 1
    18    17    18 1
    19    18    22 1
    20    18    19 1
    21    22    21 1
    22    19    20 1
    23    21    23 1
    24    21    20 1
    25    23    24 1
    26    24    25 1
    27    26    25 2
    28    27    25 2
    29    25    28 1
    30     4    29 1
    31     5    30 1
    32     6    31 1
    33     6    32 1
    34     6    33 1
    35     7    34 1
    36     8    35 1
    37     9    36 1
    38    10    37 1
    39    10    38 1
    40    10    39 1
    41    16    40 1
    42    18    41 1
    43    19    42 1
    44    19    43 1
    45    20    44 1
    46    21    45 1
    47    22    46 1
    48    22    47 1
    49    23    48 1
    50    23    49 1
    51    24    50 1
    52    28    51 1
    53    28    52 1
    54    53    28 1
@<TRIPOS>SUBSTRUCTURE
     1 DQM         1 TEMP              0 ****  ****    0 ROOT
