@<TRIPOS>MOLECULE
molecule
   24    24     1     0     0
SMALL
bcc


@<TRIPOS>ATOM
      1 C1           0.0000     0.0000     0.0000 c          1 DQN       0.562500
      2 O1          -0.6070    -0.0000    -1.0520 o          1 DQN      -0.501100
      3 C2           1.4770     0.0000     0.0000 cc         1 DQN      -0.148400
      4 C2M          2.2310     0.0050    -1.3040 c3         1 DQN      -0.051900
      5 C3           2.1460     0.0000     1.1610 cd         1 DQN      -0.148400
      6 C3M          3.6530     0.0040     1.1610 c3         1 DQN      -0.051900
      7 C4           1.4070    -0.0050     2.4390 c          1 DQN       0.562500
      8 O4           2.0150    -0.0050     3.4910 o          1 DQN      -0.501100
      9 C5          -0.0690    -0.0090     2.4390 cc         1 DQN      -0.148400
     10 C5M         -0.8230    -0.0140     3.7430 c3         1 DQN      -0.051900
     11 C6          -0.7390    -0.0090     1.2780 cd         1 DQN      -0.148400
     12 C6M         -2.2460    -0.0140     1.2780 c3         1 DQN      -0.051900
     13 H2M1         2.8570    -0.8770    -1.3630 hc         1 DQN       0.056367
     14 H2M2         2.8500     0.8920    -1.3600 hc         1 DQN       0.056367
     15 H2M3         1.5270     0.0030    -2.1280 hc         1 DQN       0.056367
     16 H3M1         4.0120     0.8900     0.6510 hc         1 DQN       0.056367
     17 H3M2         4.0140     0.0040     2.1820 hc         1 DQN       0.056367
     18 H3M3         4.0170    -0.8790     0.6490 hc         1 DQN       0.056367
     19 H5M1        -1.4420    -0.9020     3.7990 hc         1 DQN       0.056367
     20 H5M2        -0.1200    -0.0130     4.5670 hc         1 DQN       0.056367
     21 H5M3        -1.4500     0.8670     3.8020 hc         1 DQN       0.056367
     22 H6M1        -2.6100     0.8690     1.7890 hc         1 DQN       0.056367
     23 H6M2        -2.6070    -0.0150     0.2570 hc         1 DQN       0.056367
     24 H6M3        -2.6040    -0.9000     1.7890 hc         1 DQN       0.056367
@<TRIPOS>BOND
     1     1     2 2
     2     1     3 1
     3     1    11 1
     4     3     4 1
     5     3     5 2
     6     4    13 1
     7     4    14 1
     8     4    15 1
     9     5     6 1
    10     5     7 1
    11     6    16 1
    12     6    17 1
    13     6    18 1
    14     7     8 2
    15     7     9 1
    16     9    10 1
    17     9    11 2
    18    10    19 1
    19    10    20 1
    20    10    21 1
    21    11    12 1
    22    12    22 1
    23    12    23 1
    24    12    24 1
@<TRIPOS>SUBSTRUCTURE
     1 DQN         1 TEMP              0 ****  ****    0 ROOT
