@<TRIPOS>MOLECULE
DQN
   24    24     1     0     0
SMALL
bcc


@<TRIPOS>ATOM
      1 C1         -0.0210   -0.0030   -0.0380 c         1 DQN      0.558500
      2 O1         -0.6400   -0.0030   -1.1100 o         1 DQN     -0.506100
      3 C2          1.4610   -0.0000    0.0030 cc        1 DQN     -0.137400
      4 C2M         2.1680    0.0040   -1.2990 c3        1 DQN     -0.068900
      5 C3          2.1360   -0.0010    1.1730 cd        1 DQN     -0.137400
      6 C3M         3.6170    0.0020    1.2120 c3        1 DQN     -0.068900
      7 C4          1.4290   -0.0050    2.4770 c         1 DQN      0.558500
      8 O4          2.0470   -0.0050    3.5490 o         1 DQN     -0.506100
      9 C5         -0.0540   -0.0080    2.4360 cc        1 DQN     -0.137400
     10 C5M        -0.7610   -0.0130    3.7380 c3        1 DQN     -0.068900
     11 C6         -0.7290   -0.0080    1.2660 cd        1 DQN     -0.137400
     12 C6M        -2.2090   -0.0110    1.2270 c3        1 DQN     -0.068900
     13 H2M1        2.8250   -0.9000   -1.3820 hc        1 DQN      0.059367
     14 H2M2        1.4470    0.0020   -2.1540 hc        1 DQN      0.059367
     15 H2M3        2.8180    0.9120   -1.3800 hc        1 DQN      0.059367
     16 H3M1        4.0170   -0.9030    0.6870 hc        1 DQN      0.059367
     17 H3M2        4.0130    0.9090    0.6880 hc        1 DQN      0.059367
     18 H3M3        3.9960    0.0020    2.2650 hc        1 DQN      0.059367
     19 H5M1       -1.4110   -0.9210    3.8190 hc        1 DQN      0.059367
     20 H5M2       -1.4180    0.8900    3.8210 hc        1 DQN      0.059367
     21 H5M3       -0.0400   -0.0110    4.5930 hc        1 DQN      0.059367
     22 H6M1       -2.5890   -0.0110    0.1740 hc        1 DQN      0.059367
     23 H6M2       -2.6100    0.8930    1.7520 hc        1 DQN      0.059367
     24 H6M3       -2.6060   -0.9180    1.7510 hc        1 DQN      0.059367
@<TRIPOS>BOND
     1    1    2 2   
     2    1    3 1   
     3    1   11 1   
     4    3    4 1   
     5    3    5 2   
     6    4   13 1   
     7    4   14 1   
     8    4   15 1   
     9    5    6 1   
    10    5    7 1   
    11    6   16 1   
    12    6   17 1   
    13    6   18 1   
    14    7    8 2   
    15    7    9 1   
    16    9   10 1   
    17    9   11 2   
    18   10   19 1   
    19   10   20 1   
    20   10   21 1   
    21   11   12 1   
    22   12   22 1   
    23   12   23 1   
    24   12   24 1   
@<TRIPOS>SUBSTRUCTURE
     1 DQN         1 TEMP              0 ****  ****    0 ROOT
