@<TRIPOS>MOLECULE
DQO
   53    57     1     0     0
SMALL
bcc


@<TRIPOS>ATOM
      1 C1           0.0000     0.0000     0.0000 ca         1 DQO      -0.133300
      2 C2           1.3860     0.0000     0.0000 cp         1 DQO       0.027000
      3 C3           2.0740     0.0000     1.2140 ca         1 DQO      -0.184000
      4 C4           1.3670    -0.0070     2.4070 ca         1 DQO       0.051600
      5 C5          -0.0220    -0.0130     2.3990 ca         1 DQO      -0.160000
      6 C6          -0.7090    -0.0120     1.1940 ca         1 DQO      -0.038400
      7 N9           2.0550    -0.0060     3.6220 nh         1 DQO      -0.356000
      8 C10          2.1350     0.0080    -1.2810 cp         1 DQO      -0.078000
      9 N11         -2.1050    -0.0180     1.1710 n          1 DQO       0.143800
     10 C12         -2.8170    -0.0180     0.0370 c          1 DQO       0.606500
     11 N13         -2.2510    -0.0110    -1.1840 ns         1 DQO      -0.188900
     12 C14         -0.7820    -0.0040    -1.2930 c3         1 DQO       0.079300
     13 O18         -4.0290    -0.0230     0.1130 o          1 DQO      -0.721500
     14 C19         -2.7930    -0.0250     2.3920 ca         1 DQO      -0.079400
     15 C20          3.0120    -1.0320    -1.5850 ca         1 DQO      -0.039000
     16 C21          3.7060    -1.0210    -2.7770 ca         1 DQO      -0.144000
     17 C22          3.5310     0.0200    -3.6750 ca         1 DQO       0.134900
     18 C23          2.6650     1.0570    -3.3770 ca         1 DQO      -0.168000
     19 C24          1.9610     1.0540    -2.1870 ca         1 DQO       0.139900
     20 C28         -3.1410     1.1730     3.0030 ca         1 DQO      -0.010600
     21 C29         -3.8200     1.1620     4.2070 ca         1 DQO      -0.100000
     22 C30         -4.1530    -0.0400     4.8050 ca         1 DQO      -0.066000
     23 C31         -3.8080    -1.2340     4.1990 ca         1 DQO      -0.100000
     24 C32         -3.1350    -1.2310     2.9920 ca         1 DQO      -0.010600
     25 F36          1.1120     2.0640    -1.8990 f          1 DQO      -0.116900
     26 F37          4.2110     0.0240    -4.8410 f          1 DQO      -0.121900
     27 Cl38        -2.7040    -2.7320     2.2330 cl         1 DQO       0.000100
     28 Cl39        -2.7230     2.6820     2.2550 cl         1 DQO       0.000100
     29 C40          3.4860    -0.0000     3.2970 c3         1 DQO       0.123800
     30 C41          4.3060    -0.1230     4.5830 c3         1 DQO       0.136800
     31 N42          4.0220    -1.4100     5.2280 n7         1 DQO      -0.577200
     32 C43          2.5910    -1.4170     5.5530 c3         1 DQO       0.136800
     33 C44          1.7710    -1.2940     4.2680 c3         1 DQO       0.123800
     34 HC3          3.1570     0.0040     1.2240 ha         1 DQO       0.140000
     35 HC5         -0.5680    -0.0180     3.3340 ha         1 DQO       0.135000
     36 H13         -2.8210    -0.0110    -2.0070 hn         1 DQO       0.207500
     37 H141        -0.4950     0.8750    -1.8570 h1         1 DQO       0.025200
     38 H142        -0.4880    -0.8820    -1.8560 h1         1 DQO       0.025200
     39 H20          3.1500    -1.8460    -0.8840 ha         1 DQO       0.119000
     40 H21          4.3860    -1.8300    -3.0130 ha         1 DQO       0.125000
     41 H23          2.5310     1.8690    -4.0820 ha         1 DQO       0.137000
     42 H29         -4.0910     2.0970     4.6830 ha         1 DQO       0.118500
     43 H30         -4.6830    -0.0450     5.7490 ha         1 DQO       0.109000
     44 H31         -4.0730    -2.1740     4.6680 ha         1 DQO       0.118500
     45 H401         3.7370     0.9280     2.7990 h1         1 DQO       0.028450
     46 H402         3.7100    -0.8370     2.6470 h1         1 DQO       0.028450
     47 H411         5.3610    -0.0660     4.3420 h1         1 DQO       0.014450
     48 H412         4.0400     0.6830     5.2560 h1         1 DQO       0.014450
     49 H421         4.5560    -1.4860     6.0710 hn         1 DQO       0.256800
     50 H431         2.3400    -2.3450     6.0520 h1         1 DQO       0.014450
     51 H432         2.3670    -0.5800     6.2030 h1         1 DQO       0.014450
     52 H441         2.0370    -2.1000     3.5940 h1         1 DQO       0.028450
     53 H442         0.7170    -1.3510     4.5080 h1         1 DQO       0.028450
@<TRIPOS>BOND
     1     1     2 ar  
     2     1     6 ar  
     3     1    12 1   
     4     2     3 ar  
     5     2     8 1   
     6     3     4 ar  
     7     3    34 1   
     8     4     5 ar  
     9     4     7 1   
    10     5     6 ar  
    11     5    35 1   
    12     6     9 1   
    13     7    29 1   
    14     7    33 1   
    15     8    15 ar  
    16     8    19 ar  
    17     9    10 1   
    18     9    14 1   
    19    10    11 1   
    20    10    13 2   
    21    11    12 1   
    22    11    36 1   
    23    12    37 1   
    24    12    38 1   
    25    14    20 ar  
    26    14    24 ar  
    27    15    16 ar  
    28    15    39 1   
    29    16    17 ar  
    30    16    40 1   
    31    17    18 ar  
    32    17    26 1   
    33    18    19 ar  
    34    18    41 1   
    35    19    25 1   
    36    20    21 ar  
    37    20    28 1   
    38    21    22 ar  
    39    21    42 1   
    40    22    23 ar  
    41    22    43 1   
    42    23    24 ar  
    43    23    44 1   
    44    24    27 1   
    45    29    30 1   
    46    29    45 1   
    47    29    46 1   
    48    30    31 1   
    49    30    47 1   
    50    30    48 1   
    51    31    32 1   
    52    31    49 1   
    53    32    33 1   
    54    32    50 1   
    55    32    51 1   
    56    33    52 1   
    57    33    53 1   
@<TRIPOS>SUBSTRUCTURE
     1 DQO         1 TEMP              0 ****  ****    0 ROOT
