@<TRIPOS>MOLECULE
molecule
   35    36     1     0     0
SMALL
bcc


@<TRIPOS>ATOM
      1 C1           0.0000     0.0000     0.0000 ca         1 DQP      -0.042300
      2 C2           1.3830     0.0000     0.0000 ca         1 DQP       0.012100
      3 C3          -0.6920     0.0060     1.1980 ca         1 DQP       0.012100
      4 C4           2.0750     0.0000     1.1990 ca         1 DQP       0.017100
      5 C5          -0.0010     0.0070     2.3960 ca         1 DQP       0.017100
      6 C6           1.3830     0.0010     2.3970 ca         1 DQP       0.013100
      7 C7          -0.7530     0.0000    -1.3050 c3         1 DQP       0.147300
      8 N8          -0.9970    -1.3810    -1.7280 ns         1 DQP      -0.599900
      9 C9          -1.6590    -1.6280    -2.8760 c          1 DQP       0.665700
     10 C10         -1.9050    -3.0190    -3.3020 ca         1 DQP      -0.199600
     11 C11         -2.5930    -3.2780    -4.4950 ca         1 DQP       0.228100
     12 C12         -1.4470    -4.0830    -2.5210 ca         1 DQP      -0.066000
     13 C13         -2.8180    -4.5890    -4.8860 ca         1 DQP      -0.237000
     14 C14         -1.6790    -5.3790    -2.9240 ca         1 DQP      -0.205000
     15 C15         -2.3650    -5.6340    -4.1020 ca         1 DQP       0.090400
     16 O16         -2.0540    -0.7030    -3.5600 o          1 DQP      -0.531100
     17 O17         -3.0370    -2.2520    -5.2630 os         1 DQP      -0.232900
     18 C18         -3.7310    -2.5950    -6.4650 c3         1 DQP       0.007400
     19 C19         -4.1450    -1.3360    -7.1810 c          1 DQP       0.893600
     20 O20         -3.8740    -0.2560    -6.7110 o          1 DQP      -0.817800
     21 O21         -4.8150    -1.4130    -8.3420 o          1 DQP      -0.817800
     22 Cl2         -2.6510    -7.2730    -4.5980 cl         1 DQP      -0.131400
     23 Br3          2.3280     0.0020     4.0350 br         1 DQP      -0.042100
     24 Br4         -2.5830     0.0130     1.1960 br         1 DQP      -0.023100
     25 Br5          2.3290    -0.0000    -1.6380 br         1 DQP      -0.023100
     26 Br6         -0.9480     0.0160     4.0330 br         1 DQP      -0.039100
     27 Br7          3.9660    -0.0000     1.1990 br         1 DQP      -0.039100
     28 H1          -0.1670     0.5110    -2.0600 h1         1 DQP       0.081700
     29 H2          -1.6990     0.5110    -1.1760 h1         1 DQP       0.081700
     30 H3          -0.6730    -2.1410    -1.1640 hn         1 DQP       0.307500
     31 H4          -0.9100    -3.8880    -1.6000 ha         1 DQP       0.120000
     32 H5          -3.3520    -4.7950    -5.8060 ha         1 DQP       0.166000
     33 H6          -1.3250    -6.2040    -2.3170 ha         1 DQP       0.130000
     34 H7          -3.0790    -3.1770    -7.1050 h1         1 DQP       0.028700
     35 H8          -4.6110    -3.1780    -6.2210 h1         1 DQP       0.028700
@<TRIPOS>BOND
     1    26     5 1
     2    24     3 1
     3     5     3 ar
     4     5     6 ar
     5    23     6 1
     6     3     1 ar
     7     6     4 ar
     8    16     9 2
     9    12    14 ar
    10    12    10 ar
    11     1     7 1
    12     1     2 ar
    13     9    10 1
    14     9     8 1
    15    14    15 ar
    16     4     2 ar
    17     4    27 1
    18     7     8 1
    19    10    11 ar
    20     2    25 1
    21    15    22 1
    22    15    13 ar
    23    11    13 ar
    24    11    17 1
    25    17    18 1
    26    18    19 1
    27    20    19 1
    28    19    21 1
    29     7    28 1
    30     7    29 1
    31     8    30 1
    32    12    31 1
    33    13    32 1
    34    14    33 1
    35    18    34 1
    36    18    35 1
@<TRIPOS>SUBSTRUCTURE
     1 DQP         1 TEMP              0 ****  ****    0 ROOT
