@<TRIPOS>MOLECULE
molecule
   44    46     1     0     0
SMALL
bcc


@<TRIPOS>ATOM
      1 C10          0.0000     0.0000     0.0000 cc         1 DQS       0.405200
      2 N12          0.6950    -0.0070     2.0950 n          1 DQS       0.173300
      3 C13          0.7850    -0.0100     3.4400 c          1 DQS      -0.064500
      4 C15          4.5150    -0.0250     3.9150 cd         1 DQS      -0.258100
      5 C20          8.1130    -1.6220     3.6580 c3         1 DQS      -0.093767
      6 C21          7.9590    -1.9550     5.9590 c3         1 DQS      -0.093767
      7 C24          1.5960    -2.6290     3.4210 c3         1 DQS      -0.117100
      8 C01          2.3150    -0.1350     2.5320 c3         1 DQS      -0.117100
      9 C03          2.0430    -0.0170     4.0590 cc         1 DQS      -0.230400
     10 C04          3.1830    -0.0190     3.2820 cd         1 DQS      -0.298200
     11 C06          1.8200     0.0000     1.3320 cd         1 DQS       0.049300
     12 C07          1.4130     0.0000     0.0000 cc         1 DQS      -0.321300
     13 C08          2.2650     0.0000    -1.1520 cg         1 DQS       0.275800
     14 C16          5.5650    -0.8660     3.6060 cc         1 DQS      -0.088300
     15 C19          8.2040     0.5140     4.9230 c3         1 DQS      -0.093767
     16 C23          4.9570     0.8320     4.9460 cd         1 DQS       0.369200
     17 N05          3.0650    -0.0150     1.9150 na         1 DQS      -0.015400
     18 N09          2.9400     0.0210    -2.0650 n1         1 DQS      -0.396800
     19 N11         -0.4130    -0.0010     1.2370 nd         1 DQS      -0.504800
     20 N17          6.5930    -0.5370     4.4080 na         1 DQS       0.051400
     21 N22          6.1900     0.5170     5.2350 nc         1 DQS      -0.562800
     22 O14          1.5040     0.4830     3.8260 o          1 DQS       0.479500
     23 H1          -0.6360     0.0030    -0.8770 h4         1 DQS       0.056100
     24 H2           7.5840    -2.5670     3.6390 hc         1 DQS       0.056811
     25 H3           9.1570    -1.7970     3.8890 hc         1 DQS       0.056811
     26 H4           8.0330    -1.1440     2.6900 hc         1 DQS       0.056811
     27 H5           7.6310    -1.4740     6.8730 hc         1 DQS       0.056811
     28 H6           8.9480    -2.3720     6.1070 hc         1 DQS       0.056811
     29 H7           7.2680    -2.7470     5.6990 hc         1 DQS       0.056811
     30 H8           0.5950    -2.2370     3.2860 hc         1 DQS       0.010867
     31 H9           2.0450    -2.8150     2.4530 hc         1 DQS       0.010867
     32 H10          1.5480    -3.5560     3.9810 hc         1 DQS       0.010867
     33 H11          1.7560     0.6690     2.9950 hc         1 DQS       0.010867
     34 H12          3.2910     0.2280     2.2330 hc         1 DQS       0.010867
     35 H13          1.7790    -0.4910     1.6600 hc         1 DQS       0.010867
     36 H14          3.5680    -1.8170     3.4120 hc         1 DQS       0.075700
     37 H16          5.5120    -1.7460     2.9770 h4         1 DQS       0.168000
     38 H17          7.8590     0.9170     5.8680 hc         1 DQS       0.056811
     39 H18          9.2830     0.5940     4.8690 hc         1 DQS       0.056811
     40 H19          7.7590     1.0740     4.1090 hc         1 DQS       0.056811
     41 H20          4.3390     1.5180     5.5130 h4         1 DQS       0.051100
     42 H15          3.6770    -0.5780     1.3580 hn         1 DQS       0.376800
     43 C02          2.6120    -1.4140     3.7260 c3         1 DQS       0.026500
     44 C18          7.9080    -1.0060     4.8710 c3         1 DQS       0.119700
@<TRIPOS>BOND
     1    15    44 1
     2    18    13 3
     3     5    44 1
     4    44     6 1
     5    44    20 1
     6    13    12 1
     7    20    14 1
     8    20    21 1
     9    14     4 2
    10    12    11 2
    11    12     1 1
    12    21    16 2
    13    17    11 1
    14    17    10 1
    15     4    16 1
    16     4    10 1
    17    11     2 1
    18     1    19 2
    19    10     9 2
    20     2    19 1
    21     2     3 1
    22     9     3 1
    23     9    43 1
    24     3    22 2
    25    43     8 1
    26    43     7 1
    27     1    23 1
    28     5    24 1
    29     5    25 1
    30     5    26 1
    31     6    27 1
    32     6    28 1
    33     6    29 1
    34     7    30 1
    35     7    31 1
    36     7    32 1
    37     8    33 1
    38     8    34 1
    39     8    35 1
    40    43    36 1
    41    14    37 1
    42    15    38 1
    43    15    39 1
    44    15    40 1
    45    16    41 1
    46    17    42 1
@<TRIPOS>SUBSTRUCTURE
     1 DQS         1 TEMP              0 ****  ****    0 ROOT
