@<TRIPOS>MOLECULE
DQT
   58    60     1     0     0
SMALL
bcc


@<TRIPOS>ATOM
      1 C1           0.0000     0.0000     0.0000 c3         1 DQT       0.379900
      2 O1          -0.4760     0.0560    -1.3460 os         1 DQT      -0.385600
      3 C2           1.5300     0.0000     0.0000 c3         1 DQT       0.142100
      4 O2           2.0160     1.1870    -0.6810 os         1 DQT      -0.368900
      5 C3           2.0330     0.0000     1.4480 c3         1 DQT       0.008700
      6 N3           3.4960     0.0770     1.4580 ns         1 DQT      -0.182900
      7 C4           1.4520     1.2140     2.1790 c3         1 DQT       0.136100
      8 O4           1.9270     2.4130     1.5650 oh         1 DQT      -0.558800
      9 C5          -0.0760     1.1650     2.0950 c3         1 DQT       0.168100
     10 O5          -0.4760     1.1370     0.7230 os         1 DQT      -0.398600
     11 C6          -0.6640     2.4060     2.7710 c3         1 DQT       0.223400
     12 O6          -2.0890     2.3050     2.7950 oh         1 DQT      -0.582800
     13 CA1          2.2210     1.0890    -2.0090 c          1 DQT       0.713700
     14 OA1          1.9990     0.0410    -2.5820 o          1 DQT      -0.580000
     15 CA2          2.7130     2.2570    -2.7690 ca         1 DQT      -0.152600
     16 CA3          2.9260     2.1580    -4.1450 ca         1 DQT      -0.040000
     17 CA4          3.3860     3.2520    -4.8480 ca         1 DQT      -0.124000
     18 CA5          3.6360     4.4450    -4.1930 ca         1 DQT      -0.059300
     19 CA6          3.4270     4.5490    -2.8280 ca         1 DQT      -0.124000
     20 CA7          2.9630     3.4640    -2.1140 ca         1 DQT      -0.040000
     21 CA8          4.1390     5.6350    -4.9670 c3         1 DQT       0.059200
     22 CB1          4.1890    -0.4010     2.5120 c          1 DQT       0.598700
     23 OB1          3.5990    -0.8950     3.4530 o          1 DQT      -0.662100
     24 CB2          5.6650    -0.3240     2.5220 ca         1 DQT      -0.169600
     25 CB3          6.3850    -0.8180     3.6110 ca         1 DQT      -0.052500
     26 CB4          7.7620    -0.7420     3.6150 ca         1 DQT      -0.114500
     27 CB5          8.4300    -0.1800     2.5430 ca         1 DQT      -0.063300
     28 CB6          7.7230     0.3110     1.4580 ca         1 DQT      -0.114500
     29 CB7          6.3450     0.2370     1.4410 ca         1 DQT      -0.052500
     30 CB8          9.9350    -0.1000     2.5540 c3         1 DQT       0.059200
     31 CME         -1.8970    -0.0520    -1.4650 c3         1 DQT       0.253700
     32 H1          -0.3590    -0.9040     0.4770 h2         1 DQT      -0.001300
     33 H2           1.8910    -0.8870    -0.5060 h1         1 DQT       0.053700
     34 H3           1.7090    -0.9080     1.9420 h1         1 DQT       0.069700
     35 HN3          3.9830     0.4430     0.6640 hn         1 DQT       0.194500
     36 H4           1.7560     1.1880     3.2180 h1         1 DQT       0.026700
     37 HO4          2.2830     2.9840     2.2260 ho         1 DQT       0.382000
     38 H5          -0.4360     0.2730     2.5920 h1         1 DQT       0.021700
     39 H6          -0.3730     3.2910     2.2180 h1         1 DQT      -0.003300
     40 H6A         -0.2900     2.4750     3.7860 h1         1 DQT      -0.003300
     41 HO6         -2.4440     2.9970     3.3290 ho         1 DQT       0.388000
     42 HA3          2.7310     1.2250    -4.6590 ha         1 DQT       0.124000
     43 HA4          3.5520     3.1770    -5.9160 ha         1 DQT       0.109500
     44 HA6          3.6220     5.4860    -2.3210 ha         1 DQT       0.109500
     45 HA7          2.7990     3.5470    -1.0470 ha         1 DQT       0.124000
     46 HA8          4.8080     5.2990    -5.7510 hc         1 DQT       0.009700
     47 HA8A         3.3000     6.1590    -5.4080 hc         1 DQT       0.009700
     48 HA8B         4.6710     6.3020    -4.3000 hc         1 DQT       0.009700
     49 HB3          5.8630    -1.2580     4.4520 ha         1 DQT       0.115000
     50 HB4          8.3220    -1.1250     4.4600 ha         1 DQT       0.110000
     51 HB6          8.2520     0.7480     0.6200 ha         1 DQT       0.110000
     52 HB7          5.7920     0.6210     0.5920 ha         1 DQT       0.115000
     53 HB8         10.2470     0.8900     2.2430 hc         1 DQT       0.010033
     54 HB8A        10.3410    -0.8370     1.8710 hc         1 DQT       0.010033
     55 HB8B        10.3000    -0.2970     3.5550 hc         1 DQT       0.010033
     56 HME         -2.1510    -0.3770    -2.4670 h1         1 DQT      -0.007633
     57 HMEA        -2.3500     0.9120    -1.2710 h1         1 DQT      -0.007633
     58 HMEB        -2.2650    -0.7750    -0.7470 h1         1 DQT      -0.007633
@<TRIPOS>BOND
     1     1     2 1   
     2     1     3 1   
     3     1    10 1   
     4     1    32 1   
     5     2    31 1   
     6     3     4 1   
     7     3     5 1   
     8     3    33 1   
     9     4    13 1   
    10     5     6 1   
    11     5     7 1   
    12     5    34 1   
    13     6    22 1   
    14     6    35 1   
    15     7     8 1   
    16     7     9 1   
    17     7    36 1   
    18     8    37 1   
    19     9    10 1   
    20     9    11 1   
    21     9    38 1   
    22    11    12 1   
    23    11    39 1   
    24    11    40 1   
    25    12    41 1   
    26    13    14 2   
    27    13    15 1   
    28    15    16 ar  
    29    15    20 ar  
    30    16    17 ar  
    31    16    42 1   
    32    17    18 ar  
    33    17    43 1   
    34    18    19 ar  
    35    18    21 1   
    36    19    20 ar  
    37    19    44 1   
    38    20    45 1   
    39    21    46 1   
    40    21    47 1   
    41    21    48 1   
    42    22    23 2   
    43    22    24 1   
    44    24    25 ar  
    45    24    29 ar  
    46    25    26 ar  
    47    25    49 1   
    48    26    27 ar  
    49    26    50 1   
    50    27    28 ar  
    51    27    30 1   
    52    28    29 ar  
    53    28    51 1   
    54    29    52 1   
    55    30    53 1   
    56    30    54 1   
    57    30    55 1   
    58    31    56 1   
    59    31    57 1   
    60    31    58 1   
@<TRIPOS>SUBSTRUCTURE
     1 DQT         1 TEMP              0 ****  ****    0 ROOT
