@<TRIPOS>MOLECULE
molecule
   58    60     1     0     0
SMALL
bcc


@<TRIPOS>ATOM
      1 C1           0.0000     0.0000     0.0000 c3         1 DQT       0.334900
      2 O1          -0.4760     0.0560    -1.3460 os         1 DQT      -0.390600
      3 C2           1.5300     0.0000     0.0000 c3         1 DQT       0.122100
      4 O2           2.0160     1.1870    -0.6810 os         1 DQT      -0.387900
      5 C3           2.0330     0.0000     1.4480 c3         1 DQT       0.119700
      6 N3           3.4960     0.0770     1.4580 ns         1 DQT      -0.570900
      7 C4           1.4520     1.2140     2.1790 c3         1 DQT       0.099100
      8 O4           1.9270     2.4130     1.5650 oh         1 DQT      -0.572800
      9 C5          -0.0760     1.1650     2.0950 c3         1 DQT       0.147100
     10 O5          -0.4760     1.1370     0.7230 os         1 DQT      -0.414600
     11 C6          -0.6640     2.4060     2.7710 c3         1 DQT       0.149400
     12 O6          -2.0890     2.3050     2.7950 oh         1 DQT      -0.599800
     13 CA1          2.2210     1.0890    -2.0090 c          1 DQT       0.646700
     14 OA1          1.9990     0.0410    -2.5820 o          1 DQT      -0.542000
     15 CA2          2.7130     2.2570    -2.7690 ca         1 DQT      -0.134600
     16 CA3          2.9260     2.1580    -4.1450 ca         1 DQT      -0.068000
     17 CA4          3.3860     3.2520    -4.8480 ca         1 DQT      -0.149500
     18 CA5          3.6360     4.4450    -4.1930 ca         1 DQT      -0.053300
     19 CA6          3.4270     4.5490    -2.8280 ca         1 DQT      -0.149500
     20 CA7          2.9630     3.4640    -2.1140 ca         1 DQT      -0.068000
     21 CA8          4.1390     5.6350    -4.9670 c3         1 DQT      -0.052800
     22 CB1          4.1890    -0.4010     2.5120 c          1 DQT       0.674700
     23 OB1          3.5990    -0.8950     3.4530 o          1 DQT      -0.621100
     24 CB2          5.6650    -0.3240     2.5220 ca         1 DQT      -0.157600
     25 CB3          6.3850    -0.8180     3.6110 ca         1 DQT      -0.080000
     26 CB4          7.7620    -0.7420     3.6150 ca         1 DQT      -0.140000
     27 CB5          8.4300    -0.1800     2.5430 ca         1 DQT      -0.056300
     28 CB6          7.7230     0.3110     1.4580 ca         1 DQT      -0.140000
     29 CB7          6.3450     0.2370     1.4410 ca         1 DQT      -0.080000
     30 CB8          9.9350    -0.1000     2.5540 c3         1 DQT      -0.052800
     31 CME         -1.8970    -0.0520    -1.4650 c3         1 DQT       0.130700
     32 H1          -0.3590    -0.9040     0.4770 h2         1 DQT       0.033700
     33 H2           1.8910    -0.8870    -0.5060 h1         1 DQT       0.087700
     34 H3           1.7090    -0.9080     1.9420 h1         1 DQT       0.095700
     35 HN3          3.9830     0.4430     0.6640 hn         1 DQT       0.332500
     36 H4           1.7560     1.1880     3.2180 h1         1 DQT       0.057700
     37 HO4          2.2830     2.9840     2.2260 ho         1 DQT       0.395000
     38 H5          -0.4360     0.2730     2.5920 h1         1 DQT       0.051700
     39 H6          -0.3730     3.2910     2.2180 h1         1 DQT       0.035700
     40 H6A         -0.2900     2.4750     3.7860 h1         1 DQT       0.035700
     41 HO6         -2.4440     2.9970     3.3290 ho         1 DQT       0.402000
     42 HA3          2.7310     1.2250    -4.6590 ha         1 DQT       0.156000
     43 HA4          3.5520     3.1770    -5.9160 ha         1 DQT       0.135000
     44 HA6          3.6220     5.4860    -2.3210 ha         1 DQT       0.135000
     45 HA7          2.7990     3.5470    -1.0470 ha         1 DQT       0.156000
     46 HA8          4.8080     5.2990    -5.7510 hc         1 DQT       0.046033
     47 HA8A         3.3000     6.1590    -5.4080 hc         1 DQT       0.046033
     48 HA8B         4.6710     6.3020    -4.3000 hc         1 DQT       0.046033
     49 HB3          5.8630    -1.2580     4.4520 ha         1 DQT       0.142500
     50 HB4          8.3220    -1.1250     4.4600 ha         1 DQT       0.136500
     51 HB6          8.2520     0.7480     0.6200 ha         1 DQT       0.136500
     52 HB7          5.7920     0.6210     0.5920 ha         1 DQT       0.142500
     53 HB8         10.2470     0.8900     2.2430 hc         1 DQT       0.047033
     54 HB8A        10.3410    -0.8370     1.8710 hc         1 DQT       0.047033
     55 HB8B        10.3000    -0.2970     3.5550 hc         1 DQT       0.047033
     56 HME         -2.1510    -0.3770    -2.4670 h1         1 DQT       0.037033
     57 HMEA        -2.3500     0.9120    -1.2710 h1         1 DQT       0.037033
     58 HMEB        -2.2650    -0.7750    -0.7470 h1         1 DQT       0.037033
@<TRIPOS>BOND
     1     1     2 1
     2     1     3 1
     3     1    10 1
     4     2    31 1
     5     3     4 1
     6     3     5 1
     7     4    13 1
     8     5     6 1
     9     5     7 1
    10     6    22 1
    11     7     8 1
    12     7     9 1
    13     9    10 1
    14     9    11 1
    15    11    12 1
    16    13    14 2
    17    13    15 1
    18    15    16 ar
    19    15    20 ar
    20    16    17 ar
    21    17    18 ar
    22    18    19 ar
    23    18    21 1
    24    19    20 ar
    25    22    23 2
    26    22    24 1
    27    24    25 ar
    28    24    29 ar
    29    25    26 ar
    30    26    27 ar
    31    27    28 ar
    32    27    30 1
    33    28    29 ar
    34     1    32 1
    35     3    33 1
    36     5    34 1
    37     6    35 1
    38     7    36 1
    39     8    37 1
    40     9    38 1
    41    11    39 1
    42    11    40 1
    43    12    41 1
    44    16    42 1
    45    17    43 1
    46    19    44 1
    47    20    45 1
    48    21    46 1
    49    21    47 1
    50    21    48 1
    51    25    49 1
    52    26    50 1
    53    28    51 1
    54    29    52 1
    55    30    53 1
    56    30    54 1
    57    30    55 1
    58    31    56 1
    59    31    57 1
    60    31    58 1
@<TRIPOS>SUBSTRUCTURE
     1 DQT         1 TEMP              0 ****  ****    0 ROOT
