@<TRIPOS>MOLECULE
DQU
   21    22     1     0     0
SMALL
bcc


@<TRIPOS>ATOM
      1 C6           0.0000     0.0000     0.0000 ca         1 DQU      -0.008400
      2 N4          -0.6930    -0.0000    -1.2140 nv         1 DQU      -0.533200
      3 C1           1.3990     0.0000     0.0000 ca         1 DQU      -0.072000
      4 C2           2.1000     0.0000     1.1680 ca         1 DQU      -0.173300
      5 C3           1.4150     0.0010     2.3910 ca         1 DQU       0.469600
      6 N3           2.0660     0.0020     3.5650 nb         1 DQU      -0.739000
      7 C8           1.3960     0.0020     4.7000 ca         1 DQU       0.744900
      8 N2           2.1040     0.0030     5.8890 nv         1 DQU      -0.500500
      9 N1           0.0670     0.0030     4.7500 nb         1 DQU      -0.782000
     10 C7          -0.6660     0.0030     3.6480 ca         1 DQU       0.718600
     11 O1          -2.0170     0.0030     3.7150 oh         1 DQU      -0.586300
     12 C4          -0.0010     0.0020     2.3990 ca         1 DQU      -0.328600
     13 C5          -0.7020     0.0070     1.1880 ca         1 DQU      -0.063000
     14 HN41        -1.2740    -0.7780    -1.4590 hn         1 DQU       0.269800
     15 HN42        -0.6270     0.7880    -1.8280 hn         1 DQU       0.269800
     16 H1           1.9320    -0.0010    -0.9430 ha         1 DQU       0.105000
     17 H2           3.1830     0.0000     1.1510 ha         1 DQU       0.119000
     18 HN21         3.1050    -0.0080     5.8760 hn         1 DQU       0.274300
     19 HN22         1.6160     0.0130     6.7630 hn         1 DQU       0.274300
     20 HO1         -2.2890    -0.2670     4.5760 ho         1 DQU       0.421000
     21 H5          -1.7740     0.1610     1.1830 ha         1 DQU       0.121000
@<TRIPOS>BOND
     1     1     2 1   
     2     1     3 ar  
     3     1    13 ar  
     4     2    14 1   
     5     2    15 1   
     6     3     4 ar  
     7     3    16 1   
     8     4     5 ar  
     9     4    17 1   
    10     5     6 ar  
    11     5    12 ar  
    12     6     7 ar  
    13     7     8 1   
    14     7     9 ar  
    15     8    18 1   
    16     8    19 1   
    17     9    10 ar  
    18    10    11 1   
    19    10    12 ar  
    20    11    20 1   
    21    12    13 ar  
    22    13    21 1   
@<TRIPOS>SUBSTRUCTURE
     1 DQU         1 TEMP              0 ****  ****    0 ROOT
