@<TRIPOS>MOLECULE
molecule
   23    22     1     0     0
SMALL
bcc


@<TRIPOS>ATOM
      1 CAD          0.0000     0.0000     0.0000 c3         1 DQW      -0.110100
      2 CAB          1.5300     0.0000     0.0000 c3         1 DQW       0.149100
      3 OAA          2.0070     0.0000     1.3480 oh         1 DQW      -0.591300
      4 CAC          2.0390     1.2490    -0.7210 c3         1 DQW       0.134900
      5 OAE          3.4640     1.1920    -0.8240 os         1 DQW      -0.408600
      6 CAF          4.0440     2.3190    -1.4850 c3         1 DQW       0.134900
      7 CAG          5.5640     2.1520    -1.5370 c3         1 DQW       0.149100
      8 CAI          5.9070     0.8140    -2.1950 c3         1 DQW      -0.110100
      9 OAH          6.0920     2.1790    -0.2090 oh         1 DQW      -0.591300
     10 HAG         -0.3610     0.9020     0.4790 hc         1 DQW       0.043367
     11 HAE         -0.3610    -0.8660     0.5420 hc         1 DQW       0.043367
     12 HAF         -0.3610    -0.0360    -1.0210 hc         1 DQW       0.043367
     13 HAB          1.8910    -0.8840    -0.5110 h1         1 DQW       0.035200
     14 HAA          2.2300    -0.8800     1.6020 ho         1 DQW       0.398000
     15 HAC          1.6070     1.2950    -1.7130 h1         1 DQW       0.028700
     16 HAD          1.7520     2.1320    -0.1610 h1         1 DQW       0.028700
     17 HAI          3.7980     3.2230    -0.9410 h1         1 DQW       0.028700
     18 HAH          3.6530     2.3860    -2.4930 h1         1 DQW       0.028700
     19 HAJ          5.9960     2.9600    -2.1140 h1         1 DQW       0.035200
     20 HAL          6.0300     0.0560    -1.4300 hc         1 DQW       0.043367
     21 HAM          5.1070     0.5250    -2.8650 hc         1 DQW       0.043367
     22 HAK          6.8290     0.9140    -2.7560 hc         1 DQW       0.043367
     23 HAN          6.7970     2.8030    -0.1640 ho         1 DQW       0.398000
@<TRIPOS>BOND
     1     8     7 1
     2     3     2 1
     3     2     1 1
     4     2     4 1
     5     7     9 1
     6     7     6 1
     7     5     4 1
     8     5     6 1
     9     1    10 1
    10     1    11 1
    11     1    12 1
    12     2    13 1
    13     3    14 1
    14     4    15 1
    15     4    16 1
    16     6    17 1
    17     6    18 1
    18     7    19 1
    19     8    20 1
    20     8    21 1
    21     8    22 1
    22     9    23 1
@<TRIPOS>SUBSTRUCTURE
     1 DQW         1 TEMP              0 ****  ****    0 ROOT
