@<TRIPOS>MOLECULE
DQX
   64    69     1     0     0
SMALL
bcc


@<TRIPOS>ATOM
      1 F1           0.0000     0.0000     0.0000 f          1 DQX      -0.123900
      2 C2           1.3510     0.0000     0.0000 ca         1 DQX       0.138900
      3 C3           2.0430     0.0000     1.2010 ca         1 DQX      -0.153300
      4 C4           3.4280     0.0010     1.2080 ca         1 DQX       0.138900
      5 C5           4.1280     0.0020     0.0160 ca         1 DQX      -0.128000
      6 C7           3.4360     0.0010    -1.1950 cp         1 DQX       0.027000
      7 C8           2.0420    -0.0060    -1.1980 ca         1 DQX      -0.128000
      8 C10          4.1810     0.0020    -2.4750 cp         1 DQX      -0.090300
      9 C11          3.8620    -0.9350    -3.4890 ca         1 DQX       0.289300
     10 N12          2.8890    -1.8320    -3.3130 nb         1 DQX      -0.554000
     11 C13          2.6120    -2.6940    -4.2760 ca         1 DQX       0.397500
     12 C14          3.3370    -2.6710    -5.4830 ca         1 DQX       0.286900
     13 N16          4.2950    -1.7960    -5.6690 nb         1 DQX      -0.527000
     14 C17          4.5890    -0.9140    -4.7050 ca         1 DQX       0.244300
     15 C18          5.6110     0.0330    -4.8820 ca         1 DQX      -0.121300
     16 C20          5.8990     0.9240    -3.8920 ca         1 DQX      -0.102000
     17 C22          5.1920     0.9210    -2.6960 ca         1 DQX      -0.072000
     18 C24          1.5340    -3.6910    -4.0840 cc         1 DQX      -0.401800
     19 C25          1.2010    -4.6980    -4.9460 cd         1 DQX      -0.231300
     20 N27          0.1720    -5.3760    -4.4020 na         1 DQX       0.513400
     21 N28         -0.1480    -4.7800    -3.1770 nd         1 DQX      -0.654800
     22 C29          0.6650    -3.7780    -2.9760 cc         1 DQX       0.439200
     23 C31         -0.4990    -6.5360    -4.9930 c3         1 DQX      -0.044000
     24 C33         -1.5840    -6.0610    -5.9640 c3         1 DQX      -0.041900
     25 C36         -2.2390    -7.2760    -6.6250 c3         1 DQX       0.152800
     26 N39         -1.2220    -8.0540    -7.3410 n7         1 DQX      -0.582200
     27 C41         -0.1950    -8.5610    -6.4220 c3         1 DQX       0.152800
     28 C44          0.5220    -7.3840    -5.7560 c3         1 DQX      -0.041900
     29 F47          4.0960     0.0010     2.3820 f          1 DQX      -0.123900
     30 C48          1.2850    -0.0000     2.5030 c3         1 DQX       0.215100
     31 N51          1.0380    -1.3850     2.9270 n3         1 DQX      -0.530600
     32 C52          0.1040    -1.4320     4.0600 c3         1 DQX       0.103300
     33 C55         -0.1700    -2.8920     4.4280 c3         1 DQX       0.214900
     34 O58          1.0670    -3.5450     4.7210 os         1 DQX      -0.412600
     35 C59          2.0010    -3.5200     3.6390 c3         1 DQX       0.214900
     36 C62          2.2980    -2.0650     3.2620 c3         1 DQX       0.103300
     37 H5           5.2110     0.0040     0.0230 ha         1 DQX       0.131000
     38 H8           1.5020    -0.0060    -2.1360 ha         1 DQX       0.131000
     39 H14          3.1010    -3.3830    -6.2650 h4         1 DQX      -0.010900
     40 H18          6.1750     0.0530    -5.8070 ha         1 DQX       0.118000
     41 H20          6.6860     1.6520    -4.0430 ha         1 DQX       0.108000
     42 H22          5.4400     1.6400    -1.9240 ha         1 DQX       0.112000
     43 H25          1.6800    -4.9140    -5.8930 h4         1 DQX       0.154000
     44 H29          0.6660    -3.1220    -2.1140 h4         1 DQX       0.020100
     45 H31         -0.9520    -7.1340    -4.2120 h1         1 DQX       0.058700
     46 H33         -2.3330    -5.4980    -5.4200 hc         1 DQX       0.031950
     47 H33A        -1.1360    -5.4340    -6.7260 hc         1 DQX       0.031950
     48 H36         -2.9950    -6.9400    -7.3250 h1         1 DQX       0.010450
     49 H36A        -2.6960    -7.8960    -5.8630 h1         1 DQX       0.010450
     50 HN39        -1.6590    -8.8220    -7.8110 hn         1 DQX       0.257800
     51 H41          0.5230    -9.1530    -6.9770 h1         1 DQX       0.010450
     52 H41A        -0.6640    -9.1730    -5.6620 h1         1 DQX       0.010450
     53 H44          1.0000    -6.7770    -6.5160 hc         1 DQX       0.031950
     54 H44A         1.2660    -7.7610    -5.0650 hc         1 DQX       0.031950
     55 H48          0.3390     0.5110     2.3710 h1         1 DQX       0.023200
     56 H48A         1.8680     0.5100     3.2600 h1         1 DQX       0.023200
     57 H52         -0.8260    -0.9500     3.7820 h1         1 DQX       0.021200
     58 H52A         0.5420    -0.9220     4.9100 h1         1 DQX       0.021200
     59 H55         -0.6520    -3.3900     3.5950 h1         1 DQX       0.013200
     60 H55A        -0.8130    -2.9300     5.3000 h1         1 DQX       0.013200
     61 H59          1.5780    -4.0340     2.7840 h1         1 DQX       0.013200
     62 H59A         2.9190    -4.0080     3.9430 h1         1 DQX       0.013200
     63 H62          2.7660    -1.5640     4.1000 h1         1 DQX       0.021200
     64 H62A         2.9590    -2.0420     2.4040 h1         1 DQX       0.021200
@<TRIPOS>BOND
     1     1     2 1   
     2     2     3 ar  
     3     2     7 ar  
     4     3     4 ar  
     5     3    30 1   
     6     4     5 ar  
     7     4    29 1   
     8     5     6 ar  
     9     5    37 1   
    10     6     7 ar  
    11     6     8 1   
    12     7    38 1   
    13     8     9 ar  
    14     8    17 ar  
    15     9    10 ar  
    16     9    14 ar  
    17    10    11 ar  
    18    11    12 ar  
    19    11    18 1   
    20    12    13 ar  
    21    12    39 1   
    22    13    14 ar  
    23    14    15 ar  
    24    15    16 ar  
    25    15    40 1   
    26    16    17 ar  
    27    16    41 1   
    28    17    42 1   
    29    18    19 2   
    30    18    22 1   
    31    19    20 1   
    32    19    43 1   
    33    20    21 1   
    34    20    23 1   
    35    21    22 2   
    36    22    44 1   
    37    23    24 1   
    38    23    28 1   
    39    23    45 1   
    40    24    25 1   
    41    24    46 1   
    42    24    47 1   
    43    25    26 1   
    44    25    48 1   
    45    25    49 1   
    46    26    27 1   
    47    26    50 1   
    48    27    28 1   
    49    27    51 1   
    50    27    52 1   
    51    28    53 1   
    52    28    54 1   
    53    30    31 1   
    54    30    55 1   
    55    30    56 1   
    56    31    32 1   
    57    31    36 1   
    58    32    33 1   
    59    32    57 1   
    60    32    58 1   
    61    33    34 1   
    62    33    59 1   
    63    33    60 1   
    64    34    35 1   
    65    35    36 1   
    66    35    61 1   
    67    35    62 1   
    68    36    63 1   
    69    36    64 1   
@<TRIPOS>SUBSTRUCTURE
     1 DQX         1 TEMP              0 ****  ****    0 ROOT
