@<TRIPOS>MOLECULE
DQY
   19    18     1     0     0
SMALL
bcc


@<TRIPOS>ATOM
      1 S           0.2770    0.1670    0.1280 s6        1 DQY     -0.536200
      2 C1          3.9350   -1.6250    0.4870 c         1 DQY      0.908600
      3 O1          4.5800   -0.6370    0.9420 o         1 DQY     -0.850300
      4 C2          2.4000   -1.5210    0.3940 c3        1 DQY     -0.171400
      5 O2          4.4700   -2.7100    0.1210 o         1 DQY     -0.850300
      6 C3          1.9640   -0.1790   -0.1300 c3        1 DQY     -0.006600
      7 CM1        -0.0260    0.4570    1.8210 c3        1 DQY     -0.080800
      8 CM2        -0.2100    1.4480   -0.9610 c3        1 DQY     -0.080800
      9 H2          1.9930   -1.6850    1.4250 hc        1 DQY      0.019700
     10 H2A         2.0170   -2.3420   -0.2630 hc        1 DQY      0.019700
     11 H3          2.5960    0.6020    0.3730 h1        1 DQY      0.081200
     12 H3A         2.1950   -0.1190   -1.2220 h1        1 DQY      0.081200
     13 HM1         0.4620    1.4030    2.1390 h1        1 DQY      0.049533
     14 HM1A        0.3850   -0.3710    2.4390 h1        1 DQY      0.049533
     15 HM1B       -1.1170    0.5380    2.0100 h1        1 DQY      0.049533
     16 HM2        -1.3020    1.6270   -0.8760 h1        1 DQY      0.049533
     17 HM2A        0.0280    1.1790   -2.0120 h1        1 DQY      0.049533
     18 HM2B        0.3260    2.3870   -0.7080 h1        1 DQY      0.049533
     19 HS         -0.3460   -0.9260   -0.2170 hs        1 DQY      0.169800
@<TRIPOS>BOND
     1    1    6 1   
     2    1    7 1   
     3    1    8 1   
     4    1   19 1   
     5    2    3 1   
     6    2    4 1   
     7    2    5 1   
     8    4    6 1   
     9    4    9 1   
    10    4   10 1   
    11    6   11 1   
    12    6   12 1   
    13    7   13 1   
    14    7   14 1   
    15    7   15 1   
    16    8   16 1   
    17    8   17 1   
    18    8   18 1   
@<TRIPOS>SUBSTRUCTURE
     1 DQY         1 TEMP              0 ****  ****    0 ROOT
