@<TRIPOS>MOLECULE
molecule
   19    18     1     0     0
SMALL
bcc


@<TRIPOS>ATOM
      1 S            0.0000     0.0000     0.0000 s6         1 DQY      -0.676200
      2 C1           3.8250    -1.4020     0.3510 c          1 DQY       0.892600
      3 O1           4.4280    -0.4160     0.0000 o          1 DQY      -0.851300
      4 C2           2.3200    -1.3800     0.4220 c3         1 DQY      -0.186400
      5 O2           4.4950    -2.5190     0.6720 o          1 DQY      -0.851300
      6 C3           1.8100     0.0000     0.0000 c3         1 DQY       0.161400
      7 CM1         -0.0000     0.0000     1.8100 c3         1 DQY      -0.052800
      8 CM2          0.0010     1.5680    -0.9050 c3         1 DQY      -0.052800
      9 H2           1.9160    -2.1330    -0.2440 hc         1 DQY       0.036700
     10 H2A          2.0030    -1.5870     1.4370 hc         1 DQY       0.036700
     11 H3           2.1720     0.2300    -0.9950 h1         1 DQY       0.085200
     12 H3A          2.1720     0.7470     0.6970 h1         1 DQY       0.085200
     13 HM1          0.0370    -1.0210     2.1710 h1         1 DQY       0.045200
     14 HM1A        -0.9030     0.4780     2.1710 h1         1 DQY       0.045200
     15 HM1B         0.8650     0.5430     2.1710 h1         1 DQY       0.045200
     16 HM2          0.6090     2.2910    -0.3740 h1         1 DQY       0.045200
     17 HM2A        -1.0140     1.9390    -0.9850 h1         1 DQY       0.045200
     18 HM2B         0.4080     1.4120    -1.8970 h1         1 DQY       0.045200
     19 HS          -0.5180    -1.0580    -0.6110 hs         1 DQY       0.100800
@<TRIPOS>BOND
     1     7     1 1
     2     8     1 1
     3     1     6 1
     4     4     2 1
     5     2     3 1
     6     2     5 1
     7     6     4 1
     8     4     9 1
     9     4    10 1
    10     6    11 1
    11     6    12 1
    12     7    13 1
    13     7    14 1
    14     7    15 1
    15     8    16 1
    16     8    17 1
    17     8    18 1
    18     1    19 1
@<TRIPOS>SUBSTRUCTURE
     1 DQY         1 TEMP              0 ****  ****    0 ROOT
