@<TRIPOS>MOLECULE
molecule
   20    20     1     0     0
SMALL
bcc


@<TRIPOS>ATOM
      1 C4           0.0000     0.0000     0.0000 ca         1 DQZ      -0.133000
      2 C5           1.3820     0.0000     0.0000 ca         1 DQZ      -0.037300
      3 C6           2.1360     0.0000    -1.3050 c3         1 DQZ      -0.031100
      4 C7           2.3910     1.4430    -1.7450 c3         1 DQZ      -0.178400
      5 C8           3.1450     1.4440    -3.0500 c          1 DQZ       0.890600
      6 Br          -0.9460     0.0140     4.0320 br         1 DQZ      -0.141100
      7 C2          -0.0010     0.0050     2.3950 ca         1 DQZ      -0.039900
      8 C1           1.3820    -0.0010     2.3940 ca         1 DQZ      -0.107000
      9 C3          -0.6920     0.0050     1.1960 ca         1 DQZ      -0.107000
     10 C            2.0730     0.0000     1.1980 ca         1 DQZ      -0.133000
     11 O            3.4470     0.3980    -3.5740 o          1 DQZ      -0.852300
     12 O1           3.4800     2.6070    -3.6310 o          1 DQZ      -0.852300
     13 H3          -0.5410     0.0000    -0.9380 ha         1 DQZ       0.140000
     14 H4           3.0820    -0.5110    -1.1750 hc         1 DQZ       0.058700
     15 H7           1.5500    -0.5090    -2.0600 hc         1 DQZ       0.058700
     16 H5           2.9770     1.9530    -0.9900 hc         1 DQZ       0.033700
     17 H8           1.4450     1.9540    -1.8740 hc         1 DQZ       0.033700
     18 H1           1.9240    -0.0010     3.3320 ha         1 DQZ       0.129000
     19 H2          -1.7750     0.0050     1.1950 ha         1 DQZ       0.129000
     20 H            3.1560    -0.0020     1.1980 ha         1 DQZ       0.140000
@<TRIPOS>BOND
     1     6     7 1
     2     8     7 ar
     3     8    10 ar
     4     7     9 ar
     5    10     2 ar
     6     9     1 ar
     7     2     1 ar
     8     2     3 1
     9     3     4 1
    10     4     5 1
    11     5    11 1
    12     5    12 1
    13     1    13 1
    14     3    14 1
    15     3    15 1
    16     4    16 1
    17     4    17 1
    18     8    18 1
    19     9    19 1
    20    10    20 1
@<TRIPOS>SUBSTRUCTURE
     1 DQZ         1 TEMP              0 ****  ****    0 ROOT
