@<TRIPOS>MOLECULE
DR0
   33    32     1     0     0
SMALL
bcc


@<TRIPOS>ATOM
      1 CAJ          0.0000     0.0000     0.0000 c3         1 DR0       0.007900
      2 CAI          1.5300     0.0000     0.0000 c3         1 DR0      -0.025400
      3 CAH          2.0400     0.0000     1.4430 c3         1 DR0      -0.027400
      4 CAG          3.5690    -0.0000     1.4440 c3         1 DR0      -0.019400
      5 CAF          4.0790     0.0000     2.8860 c3         1 DR0      -0.051400
      6 CAE          5.6100    -0.0000     2.8870 c3         1 DR0      -0.012200
      7 NAD          6.0980    -0.0000     4.2720 n4         1 DR0       0.038200
      8 CAC          5.6090     1.1990     4.9640 c3         1 DR0       0.009100
      9 CAK          5.6090    -1.1990     4.9640 c3         1 DR0       0.009100
     10 CAB          7.5670    -0.0000     4.2730 c3         1 DR0       0.250600
     11 OAA          8.0430    -0.0000     5.6200 oh         1 DR0      -0.580800
     12 HAJ1        -0.3610     0.0000    -1.0210 hc         1 DR0       0.007700
     13 HAJ2        -0.3610    -0.8850     0.5110 hc         1 DR0       0.007700
     14 HAJ3        -0.3610     0.8850     0.5110 hc         1 DR0       0.007700
     15 HAI1         1.8920    -0.8850    -0.5110 hc         1 DR0       0.016700
     16 HAI2         1.8920     0.8850    -0.5110 hc         1 DR0       0.016700
     17 HAH1         1.6780    -0.8850     1.9530 hc         1 DR0       0.019700
     18 HAH2         1.6780     0.8850     1.9530 hc         1 DR0       0.019700
     19 HAG1         3.9310    -0.8850     0.9330 hc         1 DR0       0.025700
     20 HAG2         3.9310     0.8850     0.9330 hc         1 DR0       0.025700
     21 HAF1         3.7170    -0.8850     3.3970 hc         1 DR0       0.037700
     22 HAF2         3.7170     0.8850     3.3970 hc         1 DR0       0.037700
     23 HAE1         5.9710    -0.8850     2.3770 hx         1 DR0       0.076700
     24 HAE2         5.9710     0.8850     2.3770 hx         1 DR0       0.076700
     25 HAC1         5.6690     2.0510     4.2980 hx         1 DR0       0.078033
     26 HAC2         4.5790     1.0480     5.2650 hx         1 DR0       0.078033
     27 HAC3         6.2180     1.3830     5.8410 hx         1 DR0       0.078033
     28 HAK1         5.6690    -2.0510     4.2980 hx         1 DR0       0.078033
     29 HAK2         4.5790    -1.0480     5.2650 hx         1 DR0       0.078033
     30 HAK3         6.2180    -1.3830     5.8410 hx         1 DR0       0.078033
     31 HAB1         7.9290    -0.8840     3.7620 hx         1 DR0       0.049700
     32 HAB2         7.9290     0.8840     3.7620 hx         1 DR0       0.049700
     33 HAA          8.9860    -0.0000     5.6200 ho         1 DR0       0.456000
@<TRIPOS>BOND
     1     1     2 1   
     2     1    12 1   
     3     1    13 1   
     4     1    14 1   
     5     2     3 1   
     6     2    15 1   
     7     2    16 1   
     8     3     4 1   
     9     3    17 1   
    10     3    18 1   
    11     4     5 1   
    12     4    19 1   
    13     4    20 1   
    14     5     6 1   
    15     5    21 1   
    16     5    22 1   
    17     6     7 1   
    18     6    23 1   
    19     6    24 1   
    20     7     8 1   
    21     7     9 1   
    22     7    10 1   
    23     8    25 1   
    24     8    26 1   
    25     8    27 1   
    26     9    28 1   
    27     9    29 1   
    28     9    30 1   
    29    10    11 1   
    30    10    31 1   
    31    10    32 1   
    32    11    33 1   
@<TRIPOS>SUBSTRUCTURE
     1 DR0         1 TEMP              0 ****  ****    0 ROOT
