@<TRIPOS>MOLECULE
DR1
   30    33     1     0     0
SMALL
bcc


@<TRIPOS>ATOM
      1 C1          0.0480    0.1050   -0.0310 ca        1 DR1     -0.167000
      2 C2          1.4230    0.1510   -0.0070 ca        1 DR1     -0.088000
      3 C3          2.1280    0.1090    1.2140 ca        1 DR1     -0.152000
      4 C4          1.4360    0.0360    2.3990 ca        1 DR1     -0.081000
      5 C5          0.0180   -0.0070    2.4210 ca        1 DR1     -0.086000
      6 C6         -0.6710   -0.0560    3.6660 cc        1 DR1     -0.036000
      7 C7         -2.0430   -0.0510    3.6720 cd        1 DR1      0.104400
      8 N8         -2.9460   -0.0580    4.7340 nd        1 DR1     -0.325400
      9 C9         -4.1800   -0.0230    4.1680 ca        1 DR1      0.055000
     10 C10        -5.4540   -0.0050    4.8230 ca        1 DR1     -0.133000
     11 C11        -6.5900    0.0610    4.0700 ca        1 DR1     -0.092000
     12 C12        -6.5480    0.1240    2.6450 ca        1 DR1     -0.182000
     13 C13        -5.3580    0.1030    1.9700 ca        1 DR1     -0.059000
     14 C14        -4.1470    0.0080    2.6930 ca        1 DR1     -0.215000
     15 C15        -2.7750   -0.0290    2.3570 cd        1 DR1      0.016700
     16 N16        -2.0930   -0.0640    1.1740 na        1 DR1     -0.022100
     17 C17        -0.6970    0.0060    1.1850 ca        1 DR1      0.030700
     18 C18        -2.7990   -0.2370   -0.0740 c3        1 DR1     -0.003400
     19 HC1        -0.4720    0.1650   -0.9990 ha        1 DR1      0.138000
     20 HC2         1.9850    0.2270   -0.9500 ha        1 DR1      0.139000
     21 HC3         3.2270    0.1410    1.2040 ha        1 DR1      0.141000
     22 HC4         1.9710    0.0140    3.3610 ha        1 DR1      0.142000
     23 HC6        -0.0930   -0.0890    4.6030 ha        1 DR1      0.160000
     24 H10        -5.4860   -0.0430    5.9210 ha        1 DR1      0.146000
     25 H11        -7.5770    0.0740    4.5570 ha        1 DR1      0.127000
     26 H12        -7.4990    0.1990    2.0990 ha        1 DR1      0.127000
     27 H13        -5.3420    0.1800    0.8740 ha        1 DR1      0.114000
     28 H181       -2.2070   -0.8910   -0.7680 h1        1 DR1      0.066367
     29 H182       -3.7830   -0.7420    0.1190 h1        1 DR1      0.066367
     30 H183       -2.9760    0.7610   -0.5570 h1        1 DR1      0.066367
@<TRIPOS>BOND
     1    1    2 ar  
     2    1   17 ar  
     3    1   19 1   
     4    2    3 ar  
     5    2   20 1   
     6    3    4 ar  
     7    3   21 1   
     8    4    5 ar  
     9    4   22 1   
    10    5    6 1   
    11    5   17 ar  
    12    6    7 2   
    13    6   23 1   
    14    7    8 1   
    15    7   15 1   
    16    8    9 2   
    17    9   10 ar  
    18    9   14 ar  
    19   10   11 ar  
    20   10   24 1   
    21   11   12 ar  
    22   11   25 1   
    23   12   13 ar  
    24   12   26 1   
    25   13   14 ar  
    26   13   27 1   
    27   14   15 2   
    28   15   16 1   
    29   16   17 1   
    30   16   18 1   
    31   18   28 1   
    32   18   29 1   
    33   18   30 1   
@<TRIPOS>SUBSTRUCTURE
     1 DR1         1 TEMP              0 ****  ****    0 ROOT
