@<TRIPOS>MOLECULE
molecule
   30    33     1     0     0
SMALL
bcc


@<TRIPOS>ATOM
      1 C1           0.0000     0.0000     0.0000 ca         1 DR1      -0.179000
      2 C2           1.3750     0.0000     0.0000 ca         1 DR1      -0.075000
      3 C3           2.0880     0.0000     1.1940 ca         1 DR1      -0.157000
      4 C4           1.4380     0.0000     2.3910 ca         1 DR1      -0.071000
      5 C5           0.0310     0.0000     2.4230 ca         1 DR1      -0.096000
      6 C6          -0.6570    -0.0000     3.6500 cc         1 DR1      -0.009000
      7 C7          -2.0520     0.0000     3.6480 cd         1 DR1       0.116400
      8 N8          -2.9440    -0.0000     4.6580 nd         1 DR1      -0.357400
      9 C9          -4.1910     0.0000     4.1880 ca         1 DR1       0.072000
     10 C10         -5.4610     0.0000     4.7930 ca         1 DR1      -0.129000
     11 C11         -6.5770     0.0000     4.0160 ca         1 DR1      -0.088000
     12 C12         -6.5030     0.0000     2.6260 ca         1 DR1      -0.183000
     13 C13         -5.3030     0.0000     1.9790 ca         1 DR1      -0.059000
     14 C14         -4.1170     0.0000     2.7230 ca         1 DR1      -0.224000
     15 C15         -2.7460     0.0040     2.4100 cd         1 DR1      -0.011300
     16 N16         -2.0620     0.0000     1.2280 na         1 DR1      -0.004100
     17 C17         -0.6940     0.0000     1.2110 ca         1 DR1       0.039700
     18 C18         -2.8030     0.0000    -0.0360 c3         1 DR1       0.003600
     19 HC1         -0.5430     0.0000    -0.9370 ha         1 DR1       0.140000
     20 HC2          1.9100     0.0000    -0.9420 ha         1 DR1       0.137000
     21 HC3          3.1710     0.0000     1.1710 ha         1 DR1       0.138000
     22 HC4          2.0030     0.0000     3.3150 ha         1 DR1       0.144000
     23 HC6         -0.1170    -0.1620     4.5750 ha         1 DR1       0.158000
     24 H10         -5.5490    -0.0000     5.8730 ha         1 DR1       0.140000
     25 H11         -7.5510     0.0000     4.4910 ha         1 DR1       0.125000
     26 H12         -7.4180     0.0000     2.0460 ha         1 DR1       0.123000
     27 H13         -5.2680     0.0000     0.8960 ha         1 DR1       0.109000
     28 H181        -3.6790    -0.6300     0.0580 h1         1 DR1       0.065700
     29 H182        -2.1680    -0.3810    -0.8270 h1         1 DR1       0.065700
     30 H183        -3.1100     1.0110    -0.2750 h1         1 DR1       0.065700
@<TRIPOS>BOND
     1     1     2 ar
     2     1    17 ar
     3     1    19 1
     4     2     3 ar
     5     2    20 1
     6     3     4 ar
     7     3    21 1
     8     4     5 ar
     9     4    22 1
    10     5     6 1
    11     5    17 ar
    12     6     7 2
    13     6    23 1
    14     7     8 1
    15     7    15 1
    16     8     9 2
    17     9    10 ar
    18     9    14 ar
    19    10    11 ar
    20    10    24 1
    21    11    12 ar
    22    11    25 1
    23    12    13 ar
    24    12    26 1
    25    13    14 ar
    26    13    27 1
    27    14    15 2
    28    15    16 1
    29    16    17 1
    30    16    18 1
    31    18    28 1
    32    18    29 1
    33    18    30 1
@<TRIPOS>SUBSTRUCTURE
     1 DR1         1 TEMP              0 ****  ****    0 ROOT
