@<TRIPOS>MOLECULE
DR5
   48    49     1     0     0
SMALL
bcc


@<TRIPOS>ATOM
      1 O2          0.0990    0.3610    0.6940 oh        1 DR5     -0.606800
      2 C2          1.4620    0.1990    0.3470 c3        1 DR5      0.083100
      3 C3          2.2160   -0.1480    1.6410 c3        1 DR5      0.111100
      4 O3          1.8300   -1.4240    2.1200 oh        1 DR5     -0.606800
      5 C4          3.7290   -0.2210    1.3620 c3        1 DR5      0.123100
      6 O4          4.0480   -1.3150    0.5220 oh        1 DR5     -0.589800
      7 C5          4.1970    1.0730    0.6810 c3        1 DR5      0.109100
      8 C6          5.6350    0.9560    0.1600 c3        1 DR5      0.149400
      9 O6          6.0330    2.1470   -0.4820 oh        1 DR5     -0.608800
     10 O5          3.4250    1.4050   -0.4730 os        1 DR5     -0.415600
     11 C1          2.0360    1.5120   -0.2190 c3        1 DR5      0.311900
     12 O1          1.4980    1.6710   -1.5160 os        1 DR5     -0.412600
     13 CAX         1.6930    2.9670   -2.0960 c3        1 DR5      0.128100
     14 CAS         2.5570    2.7990   -3.3570 c3        1 DR5      0.144100
     15 OAH         3.8990    2.6440   -2.9270 oh        1 DR5     -0.588800
     16 CAR         2.4670    4.0500   -4.2490 c3        1 DR5      0.085100
     17 OAG         3.0890    3.7090   -5.4740 oh        1 DR5     -0.600800
     18 CAV         0.9980    4.4390   -4.4860 c3        1 DR5      0.302900
     19 OAK         0.9990    5.7230   -5.0690 os        1 DR5     -0.418600
     20 CAA        -0.2870    6.1720   -5.4810 c3        1 DR5      0.121700
     21 OAM         0.3250    4.6500   -3.2500 os        1 DR5     -0.445600
     22 CAU         0.2820    3.4750   -2.4440 c3        1 DR5      0.090100
     23 CAJ        -0.4770    3.8750   -1.1740 c3        1 DR5      0.137400
     24 OAC        -1.8260    4.1670   -1.4580 oh        1 DR5     -0.592800
     25 HO2        -0.3740    0.5400   -0.1290 ho        1 DR5      0.424000
     26 H2          1.5890   -0.6270   -0.4060 h1        1 DR5      0.088700
     27 H3          2.0020    0.6300    2.4250 h1        1 DR5      0.057700
     28 HO3         0.8650   -1.4250    2.1640 ho        1 DR5      0.430000
     29 H4          4.2710   -0.3400    2.3430 h1        1 DR5      0.056700
     30 HO4         3.6180   -2.0940    0.9050 ho        1 DR5      0.424000
     31 H5          4.1130    1.9150    1.4250 h1        1 DR5      0.050700
     32 H61         5.7090    0.0820   -0.5400 h1        1 DR5      0.063200
     33 H62         6.3400    0.8270    1.0220 h1        1 DR5      0.063200
     34 HO6         5.4180    2.2960   -1.2170 ho        1 DR5      0.430000
     35 H1          1.8090    2.3890    0.4490 h2        1 DR5      0.048700
     36 HAX         2.2100    3.6650   -1.3840 h1        1 DR5      0.083700
     37 HAS         2.2250    1.8890   -3.9310 h1        1 DR5      0.069700
     38 HAH         4.4160    2.4540   -3.7210 ho        1 DR5      0.420000
     39 HAR         3.0090    4.9080   -3.7620 h1        1 DR5      0.079700
     40 HAG         3.0800    4.5080   -6.0180 ho        1 DR5      0.423000
     41 HAV         0.4520    3.6840   -5.1160 h2        1 DR5      0.055700
     42 HAA1       -0.0930    7.1850   -5.9120 h1        1 DR5      0.042033
     43 HAA2       -0.7080    5.4840   -6.2550 h1        1 DR5      0.042033
     44 HAA3       -0.9760    6.2390   -4.6050 h1        1 DR5      0.042033
     45 HAU        -0.2830    2.6690   -2.9920 h1        1 DR5      0.067700
     46 HAJ1       -0.5010    3.0000   -0.4680 h1        1 DR5      0.058200
     47 HAJ2        0.0230    4.7540   -0.6890 h1        1 DR5      0.058200
     48 HAC        -1.8290    4.9040   -2.0840 ho        1 DR5      0.413000
@<TRIPOS>BOND
     1    1    2 1
     2    1   25 1
     3    2    3 1
     4    2   11 1
     5    2   26 1
     6    3    4 1
     7    3    5 1
     8    3   27 1
     9    4   28 1
    10    5    6 1
    11    5    7 1
    12    5   29 1
    13    6   30 1
    14    7    8 1
    15    7   10 1
    16    7   31 1
    17    8    9 1
    18    8   32 1
    19    8   33 1
    20    9   34 1
    21   10   11 1
    22   11   12 1
    23   11   35 1
    24   12   13 1
    25   13   14 1
    26   13   22 1
    27   13   36 1
    28   14   15 1
    29   14   16 1
    30   14   37 1
    31   15   38 1
    32   16   17 1
    33   16   18 1
    34   16   39 1
    35   17   40 1
    36   18   19 1
    37   18   21 1
    38   18   41 1
    39   19   20 1
    40   20   42 1
    41   20   43 1
    42   20   44 1
    43   21   22 1
    44   22   23 1
    45   22   45 1
    46   23   24 1
    47   23   46 1
    48   23   47 1
    49   24   48 1
@<TRIPOS>SUBSTRUCTURE
     1 DR5         1 TEMP              0 ****  ****    0 ROOT
