@<TRIPOS>MOLECULE
molecule
   23    22     1     0     0
SMALL
bcc


@<TRIPOS>ATOM
      1 CAJ          0.0000     0.0000     0.0000 c3         1 DR8      -0.040000
      2 CAI          1.4720     0.0000     0.0000 c1         1 DR8       0.039900
      3 CAH          2.6460     0.0000     0.0200 cg         1 DR8      -0.151000
      4 CAG          4.0230    -0.0030     0.0210 cg         1 DR8       0.158000
      5 CAF          5.2360     0.0720     0.5480 ch         1 DR8      -0.139000
      6 CAE          6.7360     0.5070     0.7530 ch         1 DR8       0.237000
      7 CAD          7.8670     0.5460     1.0690 c1         1 DR8      -0.248200
      8 NAC          9.0700     0.4560     1.3280 n4         1 DR8      -0.264400
      9 CAK          9.7670     1.3300     0.3300 c3         1 DR8       0.063433
     10 CAA          9.4160     0.6830     2.5370 c3         1 DR8       0.063433
     11 CAB          9.9550    -0.8890     1.1020 c3         1 DR8       0.063433
     12 HAJ1        -0.6890     0.4110     0.7280 hc         1 DR8       0.087700
     13 HAJ2         0.0110     0.6990    -0.8270 hc         1 DR8       0.087700
     14 HAJ3        -0.1430    -0.8470    -0.6600 hc         1 DR8       0.087700
     15 HAK1        10.8100     1.4980     0.5720 hx         1 DR8       0.106144
     16 HAK2         9.3510     2.3190     0.4770 hx         1 DR8       0.106144
     17 HAK3         9.5250     1.1780    -0.7140 hx         1 DR8       0.106144
     18 HAA1         8.7980     1.5500     2.7350 hx         1 DR8       0.106144
     19 HAA2         8.9270     0.1430     3.3390 hx         1 DR8       0.106144
     20 HAA3        10.3920     0.7910     2.9960 hx         1 DR8       0.106144
     21 HAB1         9.2990    -1.5930     1.6000 hx         1 DR8       0.106144
     22 HAB2         9.6130    -1.1160     0.1000 hx         1 DR8       0.106144
     23 HAB3        10.8780    -1.0680     1.6400 hx         1 DR8       0.106144
@<TRIPOS>BOND
     1     1     2 1
     2     1    12 1
     3     1    13 1
     4     1    14 1
     5     2     3 3
     6     3     4 1
     7     4     5 3
     8     5     6 1
     9     6     7 3
    10     7     8 1
    11     8     9 1
    12     8    10 1
    13     8    11 1
    14     9    15 1
    15     9    16 1
    16     9    17 1
    17    10    18 1
    18    10    19 1
    19    10    20 1
    20    11    21 1
    21    11    22 1
    22    11    23 1
@<TRIPOS>SUBSTRUCTURE
     1 DR8         1 TEMP              0 ****  ****    0 ROOT
