@<TRIPOS>MOLECULE
DR9
  125   124     1     0     0
SMALL
bcc


@<TRIPOS>ATOM
      1 CBX        -0.3410   -4.4300    2.6990 c3        1 DR9     -0.092100
      2 CBV         1.1470   -4.5780    2.5130 c3        1 DR9     -0.080400
      3 CBS         1.8830   -3.3080    2.8820 c3        1 DR9     -0.078400
      4 CBH         3.3770   -3.4620    2.6940 c3        1 DR9     -0.079400
      5 CAQ         4.1120   -2.1910    3.0630 c3        1 DR9     -0.078400
      6 CAP         5.6060   -2.3460    2.8740 c3        1 DR9     -0.080400
      7 CAO         6.3400   -1.0740    3.2400 c3        1 DR9     -0.075400
      8 CAN         7.8350   -1.2320    3.0480 c3        1 DR9     -0.048200
      9 CAM         8.5790    0.0010    3.3970 c2        1 DR9     -0.184200
     10 CAL         9.9140    0.0930    3.3730 c2        1 DR9     -0.164200
     11 CAK        10.8110   -1.0270    3.0040 c3        1 DR9     -0.052200
     12 CAJ        12.2650   -0.6060    2.9460 c3        1 DR9     -0.076400
     13 CAI        13.1570   -1.7740    2.5850 c3        1 DR9     -0.081400
     14 CAH        14.6080   -1.3510    2.4990 c3        1 DR9     -0.076400
     15 CAG        15.5030   -2.5270    2.1690 c3        1 DR9     -0.081400
     16 CAF        16.9460   -2.0930    2.0340 c3        1 DR9     -0.075400
     17 CAE        17.8410   -3.2760    1.7380 c3        1 DR9     -0.134400
     18 CAD        19.2580   -2.8440    1.5300 c         1 DR9      0.670100
     19 OAA        19.6850   -1.8560    0.9260 o         1 DR9     -0.574000
     20 OAC        20.1520   -3.6720    2.1550 os        1 DR9     -0.417900
     21 CAB        21.5200   -3.6100    1.7620 c3        1 DR9      0.146400
     22 CBE        21.8680   -4.6900    0.7370 c3        1 DR9      0.099100
     23 CBK        21.0910   -4.5640   -0.5850 c3        1 DR9      0.179400
     24 OBL        19.7370   -4.8370   -0.4390 os        1 DR9     -0.576200
     25 PBM        19.1440   -6.0840   -1.3650 p5        1 DR9      1.436800
     26 OBU        19.4930   -5.7630   -2.7600 o         1 DR9     -0.828000
     27 OBF        19.4070   -7.3640   -0.6840 o         1 DR9     -0.828000
     28 OBN        17.5570   -5.6910   -1.1340 os        1 DR9     -0.572200
     29 CBO        17.1350   -4.6460   -1.9630 c3        1 DR9      0.134400
     30 CBP        15.6490   -4.3990   -1.6960 c3        1 DR9      0.102100
     31 OBG        14.9000   -5.6070   -1.6770 oh        1 DR9     -0.639800
     32 CBQ        15.0430   -3.5260   -2.7960 c3        1 DR9      0.129400
     33 OBR        13.6710   -3.2700   -2.5630 oh        1 DR9     -0.618800
     34 OBD        21.6030   -5.9450    1.3790 os        1 DR9     -0.418900
     35 CBC        22.2590   -7.0530    0.9120 c         1 DR9      0.659100
     36 OBJ        23.2730   -6.8910    0.2240 o         1 DR9     -0.584000
     37 CBB        21.5980   -8.3190    1.3470 c3        1 DR9     -0.155400
     38 CBA        22.5440   -9.4960    1.2780 c3        1 DR9     -0.070400
     39 CAZ        21.8050  -10.7900    1.5440 c3        1 DR9     -0.079400
     40 CAY        22.7420  -11.9770    1.4820 c3        1 DR9     -0.077400
     41 CAX        22.0040  -13.2730    1.7420 c3        1 DR9     -0.080400
     42 CAW        22.9410  -14.4610    1.6850 c3        1 DR9     -0.077400
     43 CAV        22.2000  -15.7560    1.9460 c3        1 DR9     -0.052200
     44 CAU        23.0930  -16.9370    1.9030 c2        1 DR9     -0.164200
     45 CAT        22.6880  -18.1860    2.1550 c2        1 DR9     -0.185200
     46 CAS        21.2950  -18.5410    2.5120 c3        1 DR9     -0.047200
     47 CAR        21.1120  -20.0330    2.7010 c3        1 DR9     -0.076400
     48 CBI        19.6810  -20.3670    3.0630 c3        1 DR9     -0.080400
     49 CBT        19.4960  -21.8570    3.2540 c3        1 DR9     -0.078400
     50 CBW        18.0650  -22.1930    3.6160 c3        1 DR9     -0.080400
     51 CBY        17.8750  -23.6750    3.8070 c3        1 DR9     -0.092100
     52 HBX1       -0.8640   -5.3770    2.4210 hc        1 DR9      0.031033
     53 HBX2       -0.5840   -4.1920    3.7630 hc        1 DR9      0.031033
     54 HBX3       -0.7380   -3.6060    2.0570 hc        1 DR9      0.031033
     55 HBV1        1.5230   -5.4250    3.1460 hc        1 DR9      0.039200
     56 HBV2        1.3690   -4.8410    1.4450 hc        1 DR9      0.039200
     57 HBS1        1.6640   -3.0440    3.9500 hc        1 DR9      0.038200
     58 HBS2        1.5100   -2.4600    2.2490 hc        1 DR9      0.038200
     59 HBH1        3.7510   -4.3100    3.3280 hc        1 DR9      0.040200
     60 HBH2        3.5960   -3.7270    1.6260 hc        1 DR9      0.040200
     61 HAQ1        3.7390   -1.3440    2.4290 hc        1 DR9      0.038200
     62 HAQ2        3.8930   -1.9260    4.1300 hc        1 DR9      0.038200
     63 HAP1        5.9800   -3.1920    3.5090 hc        1 DR9      0.041700
     64 HAP2        5.8250   -2.6130    1.8060 hc        1 DR9      0.041700
     65 HAO1        6.1240   -0.8080    4.3080 hc        1 DR9      0.038200
     66 HAO2        5.9670   -0.2280    2.6050 hc        1 DR9      0.038200
     67 HAN1        8.0500   -1.5060    1.9780 hc        1 DR9      0.049200
     68 HAN2        8.2070   -2.0860    3.6790 hc        1 DR9      0.049200
     69 HAM         7.9660    0.8710    3.6820 ha        1 DR9      0.116000
     70 HAL        10.4100    1.0410    3.6390 ha        1 DR9      0.120000
     71 HAK1       10.5010   -1.4430    2.0050 hc        1 DR9      0.050200
     72 HAK2       10.6900   -1.8600    3.7500 hc        1 DR9      0.050200
     73 HAJ1       12.3890    0.2100    2.1870 hc        1 DR9      0.038700
     74 HAJ2       12.5760   -0.1870    3.9390 hc        1 DR9      0.038700
     75 HAI1       12.8340   -2.2060    1.6010 hc        1 DR9      0.043200
     76 HAI2       13.0460   -2.5840    3.3540 hc        1 DR9      0.043200
     77 HAH1       14.7220   -0.5600    1.7110 hc        1 DR9      0.037200
     78 HAH2       14.9270   -0.8960    3.4740 hc        1 DR9      0.037200
     79 HAG1       15.1620   -3.0030    1.2120 hc        1 DR9      0.046200
     80 HAG2       15.4160   -3.3040    2.9740 hc        1 DR9      0.046200
     81 HAF1       17.0440   -1.3370    1.2100 hc        1 DR9      0.046200
     82 HAF2       17.2800   -1.5940    2.9820 hc        1 DR9      0.046200
     83 HAE1       17.7930   -4.0300    2.5680 hc        1 DR9      0.095700
     84 HAE2       17.5270   -3.7990    0.7890 hc        1 DR9      0.095700
     85 HAB1       21.7760   -2.6040    1.3380 h1        1 DR9      0.058700
     86 HAB2       22.0800   -3.7960    2.7180 h1        1 DR9      0.058700
     87 HBE        22.9690   -4.6120    0.5050 h1        1 DR9      0.059700
     88 HBK1       21.2060   -3.4950   -0.9300 h1        1 DR9      0.039200
     89 HBK2       21.5530   -5.2560   -1.3440 h1        1 DR9      0.039200
     90 HBO1       17.3140   -4.9360   -3.0350 h1        1 DR9      0.049200
     91 HBO2       17.7350   -3.7260   -1.7270 h1        1 DR9      0.049200
     92 HBP        15.5200   -3.9010   -0.6940 h1        1 DR9      0.037700
     93 HBG        15.4770   -6.2910   -1.3060 ho        1 DR9      0.441000
     94 HBQ1       15.1690   -4.0230   -3.7950 h1        1 DR9      0.046200
     95 HBQ2       15.5360   -2.5180   -2.8060 h1        1 DR9      0.046200
     96 HBR        13.2580   -4.1220   -2.3720 ho        1 DR9      0.413000
     97 HBB1       21.1880   -8.1920    2.3810 hc        1 DR9      0.117200
     98 HBB2       20.7130   -8.4610    0.6490 hc        1 DR9      0.117200
     99 HBA1       23.0220   -9.5300    0.2630 hc        1 DR9      0.044200
    100 HBA2       23.3690   -9.3680    2.0270 hc        1 DR9      0.044200
    101 HAZ1       20.9860  -10.9140    0.7870 hc        1 DR9      0.045200
    102 HAZ2       21.3190  -10.7460    2.5540 hc        1 DR9      0.045200
    103 HAY1       23.5610  -11.8520    2.2390 hc        1 DR9      0.037200
    104 HAY2       23.2300  -12.0180    0.4720 hc        1 DR9      0.037200
    105 HAX1       21.1890  -13.3990    0.9820 hc        1 DR9      0.040200
    106 HAX2       21.5130  -13.2300    2.7500 hc        1 DR9      0.040200
    107 HAW1       23.7560  -14.3350    2.4450 hc        1 DR9      0.039200
    108 HAW2       23.4310  -14.5040    0.6770 hc        1 DR9      0.039200
    109 HAV1       21.3820  -15.8800    1.1820 hc        1 DR9      0.048700
    110 HAV2       21.6950  -15.7050    2.9500 hc        1 DR9      0.048700
    111 HAU        24.1450  -16.7360    1.6420 ha        1 DR9      0.121000
    112 HAT        23.4020  -19.0240    2.1040 ha        1 DR9      0.117000
    113 HAS1       20.5980  -18.1760    1.7080 hc        1 DR9      0.048700
    114 HAS2       21.0030  -18.0050    3.4570 hc        1 DR9      0.048700
    115 HAR1       21.3960  -20.5700    1.7570 hc        1 DR9      0.039200
    116 HAR2       21.8000  -20.3970    3.5090 hc        1 DR9      0.039200
    117 HBI1       18.9940  -20.0030    2.2550 hc        1 DR9      0.040700
    118 HBI2       19.3960  -19.8290    4.0060 hc        1 DR9      0.040700
    119 HBT1       19.7800  -22.3950    2.3110 hc        1 DR9      0.038200
    120 HBT2       20.1830  -22.2220    4.0620 hc        1 DR9      0.038200
    121 HBW1       17.3790  -21.8260    2.8070 hc        1 DR9      0.039200
    122 HBW2       17.7810  -21.6520    4.5580 hc        1 DR9      0.039200
    123 HBY1       16.8140  -23.9000    4.0730 hc        1 DR9      0.031033
    124 HBY2       18.1290  -24.2290    2.8710 hc        1 DR9      0.031033
    125 HBY3       18.5320  -24.0550    4.6260 hc        1 DR9      0.031033
@<TRIPOS>BOND
     1    1    2 1   
     2    1   52 1   
     3    1   53 1   
     4    1   54 1   
     5    2    3 1   
     6    2   55 1   
     7    2   56 1   
     8    3    4 1   
     9    3   57 1   
    10    3   58 1   
    11    4    5 1   
    12    4   59 1   
    13    4   60 1   
    14    5    6 1   
    15    5   61 1   
    16    5   62 1   
    17    6    7 1   
    18    6   63 1   
    19    6   64 1   
    20    7    8 1   
    21    7   65 1   
    22    7   66 1   
    23    8    9 1   
    24    8   67 1   
    25    8   68 1   
    26    9   10 2   
    27    9   69 1   
    28   10   11 1   
    29   10   70 1   
    30   11   12 1   
    31   11   71 1   
    32   11   72 1   
    33   12   13 1   
    34   12   73 1   
    35   12   74 1   
    36   13   14 1   
    37   13   75 1   
    38   13   76 1   
    39   14   15 1   
    40   14   77 1   
    41   14   78 1   
    42   15   16 1   
    43   15   79 1   
    44   15   80 1   
    45   16   17 1   
    46   16   81 1   
    47   16   82 1   
    48   17   18 1   
    49   17   83 1   
    50   17   84 1   
    51   18   19 2   
    52   18   20 1   
    53   20   21 1   
    54   21   22 1   
    55   21   85 1   
    56   21   86 1   
    57   22   23 1   
    58   22   34 1   
    59   22   87 1   
    60   23   24 1   
    61   23   88 1   
    62   23   89 1   
    63   24   25 1   
    64   25   26 1   
    65   25   27 1   
    66   25   28 1   
    67   28   29 1   
    68   29   30 1   
    69   29   90 1   
    70   29   91 1   
    71   30   31 1   
    72   30   32 1   
    73   30   92 1   
    74   31   93 1   
    75   32   33 1   
    76   32   94 1   
    77   32   95 1   
    78   33   96 1   
    79   34   35 1   
    80   35   36 2   
    81   35   37 1   
    82   37   38 1   
    83   37   97 1   
    84   37   98 1   
    85   38   39 1   
    86   38   99 1   
    87   38  100 1   
    88   39   40 1   
    89   39  101 1   
    90   39  102 1   
    91   40   41 1   
    92   40  103 1   
    93   40  104 1   
    94   41   42 1   
    95   41  105 1   
    96   41  106 1   
    97   42   43 1   
    98   42  107 1   
    99   42  108 1   
   100   43   44 1   
   101   43  109 1   
   102   43  110 1   
   103   44   45 2   
   104   44  111 1   
   105   45   46 1   
   106   45  112 1   
   107   46   47 1   
   108   46  113 1   
   109   46  114 1   
   110   47   48 1   
   111   47  115 1   
   112   47  116 1   
   113   48   49 1   
   114   48  117 1   
   115   48  118 1   
   116   49   50 1   
   117   49  119 1   
   118   49  120 1   
   119   50   51 1   
   120   50  121 1   
   121   50  122 1   
   122   51  123 1   
   123   51  124 1   
   124   51  125 1   
@<TRIPOS>SUBSTRUCTURE
     1 DR9         1 TEMP              0 ****  ****    0 ROOT
