@<TRIPOS>MOLECULE
molecule
  125   124     1     0     0
SMALL
bcc


@<TRIPOS>ATOM
      1 CBX          0.0000     0.0000     0.0000 c3         1 DR9      -0.092100
      2 CBV          1.5300     0.0000     0.0000 c3         1 DR9      -0.084400
      3 CBS          2.0390     0.0000     1.4420 c3         1 DR9      -0.081400
      4 CBH          3.5690    -0.0000     1.4440 c3         1 DR9      -0.082400
      5 CAQ          4.0780     0.0010     2.8860 c3         1 DR9      -0.080400
      6 CAP          5.6080     0.0010     2.8880 c3         1 DR9      -0.091400
      7 CAO          6.1170     0.0010     4.3300 c3         1 DR9      -0.076400
      8 CAN          7.6480     0.0010     4.3310 c3         1 DR9      -0.075200
      9 CAM          8.1490     0.0010     5.7520 c2         1 DR9      -0.175200
     10 CAL          9.0200    -0.8970     6.1390 c2         1 DR9      -0.284200
     11 CAK          9.6480    -1.8220     5.1300 c3         1 DR9      -0.051200
     12 CAJ         11.1720    -1.7470     5.2470 c3         1 DR9      -0.106400
     13 CAI         11.8100    -2.6850     4.2210 c3         1 DR9      -0.083400
     14 CAH         13.3330    -2.6090     4.3380 c3         1 DR9      -0.079400
     15 CAG         13.9710    -3.5480     3.3130 c3         1 DR9      -0.084400
     16 CAF         15.4950    -3.4720     3.4300 c3         1 DR9      -0.072400
     17 CAE         16.1330    -4.4110     2.4040 c3         1 DR9      -0.124400
     18 CAD         17.6330    -4.3360     2.5190 c          1 DR9       0.638100
     19 OAA         18.1410    -3.6060     3.3380 o          1 DR9      -0.592000
     20 OAC         18.4060    -5.0800     1.7130 os         1 DR9      -0.369900
     21 CAB         19.8520    -5.0080     1.8240 c3         1 DR9       0.167400
     22 CBE         20.4910    -5.9470     0.7980 c3         1 DR9       0.154100
     23 CBK         19.9680    -5.6070    -0.5990 c3         1 DR9       0.141400
     24 OBL         18.5400    -5.6510    -0.5980 os         1 DR9      -0.524200
     25 PBM         18.0610    -5.2860    -2.0910 p5         1 DR9       1.280800
     26 OBU         18.6450    -3.9860    -2.4900 o          1 DR9      -0.821000
     27 OBF         18.5540    -6.4320    -3.1070 o          1 DR9      -0.821000
     28 OBN         16.4540    -5.1880    -2.1300 os         1 DR9      -0.543200
     29 CBO         16.1000    -4.7470    -3.4430 c3         1 DR9       0.146400
     30 CBP         14.5780    -4.6330    -3.5480 c3         1 DR9       0.150100
     31 OBG         13.9920    -5.9290    -3.4130 oh         1 DR9      -0.592800
     32 CBQ         14.2040    -4.0440    -4.9090 c3         1 DR9       0.122400
     33 OBR         12.7920    -3.8290    -4.9640 oh         1 DR9      -0.617800
     34 OBD         20.1480    -7.3210     1.1220 os         1 DR9      -0.414900
     35 CBC         20.9950    -8.3140     0.8090 c          1 DR9       0.641100
     36 OBJ         22.0410    -8.0660     0.2580 o          1 DR9      -0.566000
     37 CBB         20.6410    -9.7410     1.1450 c3         1 DR9      -0.124400
     38 CBA         21.7670   -10.6680     0.6840 c3         1 DR9      -0.072400
     39 CAZ         21.4060   -12.1160     1.0250 c3         1 DR9      -0.084400
     40 CAY         22.5320   -13.0440     0.5640 c3         1 DR9      -0.078400
     41 CAX         22.1720   -14.4910     0.9050 c3         1 DR9      -0.091400
     42 CAW         23.2980   -15.4180     0.4450 c3         1 DR9      -0.096400
     43 CAV         22.9380   -16.8660     0.7860 c3         1 DR9       0.063800
     44 CAU         24.0470   -17.7800     0.3320 c2         1 DR9      -0.225200
     45 CAT         24.5760   -18.6340     1.1730 c2         1 DR9      -0.243200
     46 CAS         23.9670   -18.8250     2.5370 c3         1 DR9       0.068800
     47 CAR         23.6750   -20.3100     2.7630 c3         1 DR9      -0.097400
     48 CBI         23.0570   -20.5030     4.1480 c3         1 DR9      -0.091400
     49 CBT         22.7640   -21.9880     4.3740 c3         1 DR9      -0.079400
     50 CBW         22.1460   -22.1820     5.7600 c3         1 DR9      -0.084400
     51 CBY         21.8540   -23.6660     5.9850 c3         1 DR9      -0.092100
     52 HBX1        -0.3610    -0.8790     0.5190 hc         1 DR9       0.031033
     53 HBX2        -0.3610     0.8890     0.5020 hc         1 DR9       0.031033
     54 HBX3        -0.3610    -0.0100    -1.0210 hc         1 DR9       0.031033
     55 HBV1         1.8910     0.8850    -0.5110 hc         1 DR9       0.040700
     56 HBV2         1.8910    -0.8850    -0.5110 hc         1 DR9       0.040700
     57 HBS1         1.6780    -0.8840     1.9530 hc         1 DR9       0.040200
     58 HBS2         1.6780     0.8840     1.9530 hc         1 DR9       0.040200
     59 HBH1         3.9310    -0.8850     0.9340 hc         1 DR9       0.041700
     60 HBH2         3.9310     0.8840     0.9330 hc         1 DR9       0.041700
     61 HAQ1         3.7160    -0.8840     3.3970 hc         1 DR9       0.041200
     62 HAQ2         3.7170     0.8850     3.3960 hc         1 DR9       0.041200
     63 HAP1         5.9690    -0.8840     2.3770 hc         1 DR9       0.040200
     64 HAP2         5.9690     0.8850     2.3770 hc         1 DR9       0.040200
     65 HAO1         5.7560    -0.8840     4.8410 hc         1 DR9       0.051700
     66 HAO2         5.7560     0.8850     4.8410 hc         1 DR9       0.051700
     67 HAN1         8.0090     0.8860     3.8210 hc         1 DR9       0.047200
     68 HAN2         8.0100    -0.8830     3.8200 hc         1 DR9       0.047200
     69 HAM          8.7090     0.4880     4.9630 ha         1 DR9       0.135000
     70 HAL          9.7190    -0.6470     5.3500 ha         1 DR9       0.192000
     71 HAK1         9.3480    -1.5260     4.1320 hc         1 DR9       0.062700
     72 HAK2         9.3220    -2.8380     5.3190 hc         1 DR9       0.062700
     73 HAJ1        11.4990    -0.7310     5.0590 hc         1 DR9       0.053700
     74 HAJ2        11.4730    -2.0440     6.2440 hc         1 DR9       0.053700
     75 HAI1        11.5100    -2.3890     3.2240 hc         1 DR9       0.042700
     76 HAI2        11.4840    -3.7010     4.4090 hc         1 DR9       0.042700
     77 HAH1        13.6600    -1.5930     4.1490 hc         1 DR9       0.043700
     78 HAH2        13.6340    -2.9050     5.3360 hc         1 DR9       0.043700
     79 HAG1        13.6450    -4.5640     3.5020 hc         1 DR9       0.042700
     80 HAG2        13.6700    -3.2520     2.3150 hc         1 DR9       0.042700
     81 HAF1        15.8220    -2.4560     3.2410 hc         1 DR9       0.053700
     82 HAF2        15.7970    -3.7680     4.4270 hc         1 DR9       0.053700
     83 HAE1        15.8070    -5.4270     2.5930 hc         1 DR9       0.078700
     84 HAE2        15.8320    -4.1150     1.4070 hc         1 DR9       0.078700
     85 HAB1        20.1790    -3.9930     1.6360 h1         1 DR9       0.047200
     86 HAB2        20.1530    -5.3050     2.8210 h1         1 DR9       0.047200
     87 HBE         21.5670    -5.8280     0.8200 h1         1 DR9       0.069700
     88 HBK1        20.2980    -4.6140    -0.8760 h1         1 DR9       0.069700
     89 HBK2        20.3500    -6.3270    -1.3120 h1         1 DR9       0.069700
     90 HBO1        16.5490    -3.7800    -3.6330 h1         1 DR9       0.063200
     91 HBO2        16.4590    -5.4620    -4.1730 h1         1 DR9       0.063200
     92 HBP         14.2090    -3.9860    -2.7610 h1         1 DR9       0.038700
     93 HBG         13.4260    -5.9420    -2.6580 ho         1 DR9       0.396000
     94 HBQ1        14.4960    -4.7330    -5.6930 h1         1 DR9       0.030700
     95 HBQ2        14.7190    -3.1010    -5.0480 h1         1 DR9       0.030700
     96 HBR         12.5720    -3.3870    -5.7670 ho         1 DR9       0.390000
     97 HBB1        19.7210   -10.0120     0.6410 hc         1 DR9       0.070200
     98 HBB2        20.5080    -9.8370     2.2150 hc         1 DR9       0.070200
     99 HBA1        21.8990   -10.5720    -0.3870 hc         1 DR9       0.059200
    100 HBA2        22.6870   -10.3970     1.1880 hc         1 DR9       0.059200
    101 HAZ1        21.2750   -12.2120     2.0960 hc         1 DR9       0.039200
    102 HAZ2        20.4860   -12.3870     0.5220 hc         1 DR9       0.039200
    103 HAY1        23.4520   -12.7720     1.0670 hc         1 DR9       0.046200
    104 HAY2        22.6640   -12.9470    -0.5070 hc         1 DR9       0.046200
    105 HAX1        21.2520   -14.7620     0.4020 hc         1 DR9       0.037700
    106 HAX2        22.0390   -14.5870     1.9760 hc         1 DR9       0.037700
    107 HAW1        24.2180   -15.1470     0.9490 hc         1 DR9       0.056200
    108 HAW2        23.4300   -15.3220    -0.6260 hc         1 DR9       0.056200
    109 HAV1        22.8060   -16.9620     1.8570 hc         1 DR9       0.044200
    110 HAV2        22.0170   -17.1370     0.2830 hc         1 DR9       0.044200
    111 HAU         23.0160   -18.1140     0.3360 ha         1 DR9       0.072000
    112 HAT         24.8260   -17.9720     1.9920 ha         1 DR9       0.069000
    113 HAS1        24.6590   -18.4740     3.2930 hc         1 DR9       0.043700
    114 HAS2        23.0450   -18.2610     2.6020 hc         1 DR9       0.043700
    115 HAR1        22.9830   -20.6610     2.0060 hc         1 DR9       0.053700
    116 HAR2        24.5980   -20.8730     2.6970 hc         1 DR9       0.053700
    117 HBI1        22.1340   -19.9400     4.2140 hc         1 DR9       0.038700
    118 HBI2        23.7490   -20.1520     4.9050 hc         1 DR9       0.038700
    119 HBT1        23.6870   -22.5520     4.3090 hc         1 DR9       0.042200
    120 HBT2        22.0720   -22.3390     3.6180 hc         1 DR9       0.042200
    121 HBW1        22.8380   -21.8310     6.5160 hc         1 DR9       0.039700
    122 HBW2        21.2230   -21.6180     5.8260 hc         1 DR9       0.039700
    123 HBY1        21.4280   -23.8050     6.9720 hc         1 DR9       0.032033
    124 HBY2        22.7750   -24.2310     5.9070 hc         1 DR9       0.032033
    125 HBY3        21.1530   -24.0140     5.2370 hc         1 DR9       0.032033
@<TRIPOS>BOND
     1     1     2 1
     2     1    52 1
     3     1    53 1
     4     1    54 1
     5     2     3 1
     6     2    55 1
     7     2    56 1
     8     3     4 1
     9     3    57 1
    10     3    58 1
    11     4     5 1
    12     4    59 1
    13     4    60 1
    14     5     6 1
    15     5    61 1
    16     5    62 1
    17     6     7 1
    18     6    63 1
    19     6    64 1
    20     7     8 1
    21     7    65 1
    22     7    66 1
    23     8     9 1
    24     8    67 1
    25     8    68 1
    26     9    10 2
    27     9    69 1
    28    10    11 1
    29    10    70 1
    30    11    12 1
    31    11    71 1
    32    11    72 1
    33    12    13 1
    34    12    73 1
    35    12    74 1
    36    13    14 1
    37    13    75 1
    38    13    76 1
    39    14    15 1
    40    14    77 1
    41    14    78 1
    42    15    16 1
    43    15    79 1
    44    15    80 1
    45    16    17 1
    46    16    81 1
    47    16    82 1
    48    17    18 1
    49    17    83 1
    50    17    84 1
    51    18    19 2
    52    18    20 1
    53    20    21 1
    54    21    22 1
    55    21    85 1
    56    21    86 1
    57    22    23 1
    58    22    34 1
    59    22    87 1
    60    23    24 1
    61    23    88 1
    62    23    89 1
    63    24    25 1
    64    25    26 1
    65    25    27 1
    66    25    28 1
    67    28    29 1
    68    29    30 1
    69    29    90 1
    70    29    91 1
    71    30    31 1
    72    30    32 1
    73    30    92 1
    74    31    93 1
    75    32    33 1
    76    32    94 1
    77    32    95 1
    78    33    96 1
    79    34    35 1
    80    35    36 2
    81    35    37 1
    82    37    38 1
    83    37    97 1
    84    37    98 1
    85    38    39 1
    86    38    99 1
    87    38   100 1
    88    39    40 1
    89    39   101 1
    90    39   102 1
    91    40    41 1
    92    40   103 1
    93    40   104 1
    94    41    42 1
    95    41   105 1
    96    41   106 1
    97    42    43 1
    98    42   107 1
    99    42   108 1
   100    43    44 1
   101    43   109 1
   102    43   110 1
   103    44    45 2
   104    44   111 1
   105    45    46 1
   106    45   112 1
   107    46    47 1
   108    46   113 1
   109    46   114 1
   110    47    48 1
   111    47   115 1
   112    47   116 1
   113    48    49 1
   114    48   117 1
   115    48   118 1
   116    49    50 1
   117    49   119 1
   118    49   120 1
   119    50    51 1
   120    50   121 1
   121    50   122 1
   122    51   123 1
   123    51   124 1
   124    51   125 1
@<TRIPOS>SUBSTRUCTURE
     1 DR9         1 TEMP              0 ****  ****    0 ROOT
