@<TRIPOS>MOLECULE
molecule
   48    51     1     0     0
SMALL
bcc


@<TRIPOS>ATOM
      1 O24          0.0000     0.0000     0.0000 os         1 DRC      -0.405600
      2 C20          1.9420     0.0000     1.4390 c3         1 DRC       0.094800
      3 C21          1.4260     0.0000     0.0000 c3         1 DRC       0.125900
      4 C22          0.0460    -1.2450     2.0720 c3         1 DRC       0.094800
      5 C23         -0.4230    -1.2150     0.6170 c3         1 DRC       0.125900
      6 N19          1.5140    -1.2300     2.1160 n3         1 DRC      -0.664600
      7 C18          1.8910    -1.0910     3.5280 c3         1 DRC       0.116800
      8 C17          1.4720    -2.3450     4.2970 c3         1 DRC       0.114000
      9 N16          1.8490    -2.2050     5.7040 ns         1 DRC      -0.597900
     10 C15          1.5760    -3.1970     6.5770 c          1 DRC       0.670700
     11 O15          1.0180    -4.2050     6.1950 o          1 DRC      -0.561100
     12 N9           2.1470    -4.8140    12.5670 nv         1 DRC      -0.984200
     13 C4           1.9560    -3.0550     7.9910 ca         1 DRC      -0.185900
     14 C3           2.5970    -1.9080     8.4420 ca         1 DRC      -0.084000
     15 C2           2.9560    -1.7740     9.7750 ca         1 DRC      -0.156000
     16 C1           2.6990    -2.7520    10.6880 ca         1 DRC      -0.071000
     17 C11          2.0520    -3.9370    10.3060 ca         1 DRC      -0.191300
     18 C12          1.6660    -4.1250     8.9520 ca         1 DRC       0.469600
     19 C9           1.7870    -4.9540    11.2460 ca         1 DRC       0.232600
     20 C13          1.1380    -6.1170    10.7870 ca         1 DRC      -0.179300
     21 C14          0.7820    -6.2240     9.4180 ca         1 DRC       0.444600
     22 N10          1.0570    -5.2350     8.5640 nb         1 DRC      -0.642000
     23 C8           0.8380    -7.1710    11.6660 ca         1 DRC      -0.105000
     24 C7           0.2100    -8.2840    11.1960 ca         1 DRC      -0.132000
     25 C6          -0.1410    -8.3910     9.8510 ca         1 DRC      -0.118000
     26 C5           0.1330    -7.3910     8.9710 ca         1 DRC      -0.164300
     27 H201         3.0240     0.0480     1.4330 h1         1 DRC       0.048950
     28 H202         1.5410     0.8580     1.9650 h1         1 DRC       0.048950
     29 H211         1.7850     0.8860    -0.5100 h1         1 DRC       0.055700
     30 H212         1.7850    -0.8860    -0.5100 h1         1 DRC       0.055700
     31 H221        -0.3390    -0.3760     2.5920 h1         1 DRC       0.048950
     32 H222        -0.3190    -2.1470     2.5490 h1         1 DRC       0.048950
     33 H231         0.0050    -2.0560     0.0850 h1         1 DRC       0.055700
     34 H232        -1.5040    -1.2760     0.5870 h1         1 DRC       0.055700
     35 H181         1.3950    -0.2260     3.9510 h1         1 DRC       0.039700
     36 H182         2.9640    -0.9630     3.6040 h1         1 DRC       0.039700
     37 H171         1.9680    -3.2100     3.8740 h1         1 DRC       0.061200
     38 H172         0.3980    -2.4720     4.2220 h1         1 DRC       0.061200
     39 H16          2.3420    -1.3900     6.0120 hn         1 DRC       0.307500
     40 HN91         1.5090    -4.4020    13.2180 hn         1 DRC       0.436800
     41 HN92         3.0470    -5.1250    12.8760 hn         1 DRC       0.436800
     42 HC3          2.8180    -1.1090     7.7440 ha         1 DRC       0.126000
     43 HC2          3.4550    -0.8680    10.0990 ha         1 DRC       0.131000
     44 HC1          2.9950    -2.6120    11.7210 ha         1 DRC       0.138000
     45 HC8          1.1060    -7.0990    12.7130 ha         1 DRC       0.136000
     46 HC7         -0.0210    -9.0960    11.8750 ha         1 DRC       0.130000
     47 HC6         -0.6410    -9.2870     9.5010 ha         1 DRC       0.133000
     48 HC5         -0.1470    -7.4930     7.9300 ha         1 DRC       0.158000
@<TRIPOS>BOND
     1     1     3 1
     2     1     5 1
     3     2     3 1
     4     2     6 1
     5     2    27 1
     6     2    28 1
     7     3    29 1
     8     3    30 1
     9     4     5 1
    10     4     6 1
    11     4    31 1
    12     4    32 1
    13     5    33 1
    14     5    34 1
    15     6     7 1
    16     7     8 1
    17     7    35 1
    18     7    36 1
    19     8     9 1
    20     8    37 1
    21     8    38 1
    22     9    10 1
    23     9    39 1
    24    10    11 2
    25    10    13 1
    26    12    19 1
    27    12    40 1
    28    12    41 1
    29    13    14 ar
    30    13    18 ar
    31    14    15 ar
    32    14    42 1
    33    15    16 ar
    34    15    43 1
    35    16    17 ar
    36    16    44 1
    37    17    18 ar
    38    17    19 ar
    39    18    22 ar
    40    19    20 ar
    41    20    21 ar
    42    20    23 ar
    43    21    22 ar
    44    21    26 ar
    45    23    24 ar
    46    23    45 1
    47    24    25 ar
    48    24    46 1
    49    25    26 ar
    50    25    47 1
    51    26    48 1
@<TRIPOS>SUBSTRUCTURE
     1 DRC         1 TEMP              0 ****  ****    0 ROOT
