@<TRIPOS>MOLECULE
molecule
   75    79     1     0     0
SMALL
bcc


@<TRIPOS>ATOM
      1 CAV          0.0000     0.0000     0.0000 ca         1 DRD      -0.077000
      2 CAY          1.3940     0.0000     0.0000 ca         1 DRD      -0.145500
      3 CAX          2.0930     0.0000     1.2080 ca         1 DRD      -0.111000
      4 CAW          1.3960     0.0020     2.4160 ca         1 DRD      -0.145500
      5 CAZ          0.0000     0.0030     2.4160 ca         1 DRD      -0.077000
      6 CBA         -0.6580     0.0020     1.2080 ca         1 DRD      -0.170600
      7 CBB         -2.1510     0.0030     1.2090 c          1 DRD       0.584300
      8 OBO         -2.7220     0.0020     0.1070 o          1 DRD      -0.547100
      9 CBC         -2.9300     0.0050     2.4370 ca         1 DRD      -0.155600
     10 CBH         -3.3060    -1.2020     3.0270 ca         1 DRD      -0.078000
     11 CBD         -3.3020     1.2130     3.0220 ca         1 DRD      -0.106000
     12 CBG         -4.0500     1.2170     4.2000 ca         1 DRD      -0.110000
     13 CBF         -4.4370     0.0110     4.8080 ca         1 DRD       0.003000
     14 CBK         -5.1890    -0.0030     5.9940 ca         1 DRD      -0.077300
     15 CBL         -5.6140     1.2700     6.6610 c3         1 DRD      -0.035100
     16 CBM         -4.5740     1.7540     7.6790 c3         1 DRD      -0.082400
     17 CBN         -4.9910     3.0620     8.3320 c3         1 DRD      -0.087100
     18 CBE         -4.0580    -1.2160     4.2130 ca         1 DRD      -0.041000
     19 CBI         -4.4440    -2.4220     4.8210 ca         1 DRD      -0.113000
     20 CBJ         -5.1930    -2.4180     5.9990 ca         1 DRD      -0.160000
     21 CAE         -5.5640    -1.2110     6.5840 ca         1 DRD       0.143100
     22 OAD         -6.2950    -1.2310     7.7340 os         1 DRD      -0.360900
     23 CAC         -5.7090    -1.8760     8.8620 c3         1 DRD       0.144400
     24 CAB         -6.2020    -1.1890    10.1290 c3         1 DRD      -0.110400
     25 CAA         -5.6520    -1.8140    11.4120 c3         1 DRD       0.060300
     26 NAT         -4.1960    -1.8340    11.4790 na         1 DRD      -0.072400
     27 CAU         -3.4280    -2.8600    11.0150 cc         1 DRD      -0.168100
     28 CAM         -2.1120    -2.5290    11.2470 cd         1 DRD      -0.136200
     29 CAN         -2.0900    -1.2530    11.8760 ca         1 DRD       0.037200
     30 CAO         -3.4180    -0.8400    12.0100 ca         1 DRD      -0.071200
     31 CAR         -3.7740     0.3830    12.5920 ca         1 DRD      -0.170000
     32 CAQ         -2.7400     1.2040    13.0510 ca         1 DRD      -0.122000
     33 CAP         -1.4070     0.8170    12.9300 ca         1 DRD      -0.214000
     34 CAS         -1.0660    -0.4080    12.3460 ca         1 DRD       0.220100
     35 OAF          0.2530    -0.7590    12.2420 os         1 DRD      -0.385900
     36 CAG          0.9310    -0.3630    11.0550 c3         1 DRD       0.060800
     37 CAL          2.0030    -1.4060    10.7530 c3         1 DRD      -0.070600
     38 CAK          1.5190     1.0250    11.2870 c3         1 DRD      -0.070600
     39 CAH         -0.1340    -0.3360     9.9660 c          1 DRD       0.863600
     40 OAJ          0.3600    -0.0380     8.7360 o          1 DRD      -0.815800
     41 OAI         -1.3240    -0.5600    10.1540 o          1 DRD      -0.815800
     42 HAP         -0.6240     1.4720    13.2950 ha         1 DRD       0.119000
     43 HAQ         -2.9790     2.1570    13.5070 ha         1 DRD       0.102000
     44 HAR         -4.8110     0.6800    12.6840 ha         1 DRD       0.104000
     45 HAU         -3.7900    -3.8170    10.6590 h4         1 DRD       0.146000
     46 HAM         -1.2480    -3.1320    10.9960 ha         1 DRD       0.147000
     47 HAA1        -6.0160    -2.8320    11.4820 h1         1 DRD       0.042200
     48 HAA2        -6.0290    -1.2530    12.2580 h1         1 DRD       0.042200
     49 HAB1        -7.2840    -1.2410    10.1540 hc         1 DRD       0.054200
     50 HAB2        -5.9050    -0.1470    10.0970 hc         1 DRD       0.054200
     51 HAC1        -6.0010    -2.9190     8.8770 h1         1 DRD       0.051700
     52 HAC2        -4.6300    -1.8020     8.8040 h1         1 DRD       0.051700
     53 HBJ         -5.6970    -3.3660     6.1400 ha         1 DRD       0.135000
     54 HBI         -4.2600    -3.3880     4.3670 ha         1 DRD       0.127000
     55 HBH         -3.0090    -2.1380     2.5690 ha         1 DRD       0.133000
     56 HBD         -3.0090     2.1490     2.5640 ha         1 DRD       0.133000
     57 HBG         -4.3350     2.1600     4.6500 ha         1 DRD       0.142000
     58 HBL1        -6.5550     1.1040     7.1710 hc         1 DRD       0.044200
     59 HBL2        -5.7510     2.0350     5.9070 hc         1 DRD       0.044200
     60 HBM1        -3.6260     1.8980     7.1730 hc         1 DRD       0.064200
     61 HBM2        -4.4530     0.9990     8.4460 hc         1 DRD       0.064200
     62 HBN1        -5.7870     2.8740     9.0410 hc         1 DRD       0.028033
     63 HBN2        -4.1420     3.4950     8.8480 hc         1 DRD       0.028033
     64 HBN3        -5.3400     3.7500     7.5710 hc         1 DRD       0.028033
     65 HAZ         -0.5520     0.0050     3.3480 ha         1 DRD       0.156500
     66 HAW          1.9380     0.0020     3.3540 ha         1 DRD       0.136500
     67 HAX          3.1760    -0.0000     1.2070 ha         1 DRD       0.128000
     68 HAY          1.9360    -0.0020    -0.9380 ha         1 DRD       0.136500
     69 HAV         -0.5530    -0.0000    -0.9310 ha         1 DRD       0.156500
     70 HAL1         2.7060    -1.0030    10.0340 hc         1 DRD       0.031033
     71 HAL2         1.5380    -2.2940    10.3440 hc         1 DRD       0.031033
     72 HAL3         2.5270    -1.6600    11.6660 hc         1 DRD       0.031033
     73 HAK1         2.3180     1.2020    10.5770 hc         1 DRD       0.031033
     74 HAK2         1.9110     1.0880    12.2940 hc         1 DRD       0.031033
     75 HAK3         0.7460     1.7720    11.1530 hc         1 DRD       0.031033
@<TRIPOS>BOND
     1     1     2 ar
     2     1     6 ar
     3     1    69 1
     4     2     3 ar
     5     2    68 1
     6     3     4 ar
     7     3    67 1
     8     4     5 ar
     9     4    66 1
    10     5     6 ar
    11     5    65 1
    12     6     7 1
    13     7     9 1
    14     7     8 2
    15     9    10 ar
    16     9    11 ar
    17    10    18 ar
    18    10    55 1
    19    11    56 1
    20    11    12 ar
    21    12    57 1
    22    12    13 ar
    23    13    18 ar
    24    13    14 ar
    25    14    21 ar
    26    14    15 1
    27    15    58 1
    28    15    59 1
    29    15    16 1
    30    16    60 1
    31    16    61 1
    32    16    17 1
    33    17    62 1
    34    17    63 1
    35    17    64 1
    36    18    19 ar
    37    19    20 ar
    38    19    54 1
    39    20    21 ar
    40    20    53 1
    41    21    22 1
    42    22    23 1
    43    23    24 1
    44    23    51 1
    45    23    52 1
    46    24    25 1
    47    24    49 1
    48    24    50 1
    49    25    26 1
    50    25    47 1
    51    25    48 1
    52    26    30 1
    53    26    27 1
    54    27    45 1
    55    27    28 2
    56    28    46 1
    57    28    29 1
    58    29    34 ar
    59    29    30 ar
    60    30    31 ar
    61    31    32 ar
    62    31    44 1
    63    32    33 ar
    64    32    43 1
    65    33    34 ar
    66    33    42 1
    67    34    35 1
    68    35    36 1
    69    36    39 1
    70    36    37 1
    71    36    38 1
    72    37    70 1
    73    37    71 1
    74    37    72 1
    75    38    73 1
    76    38    74 1
    77    38    75 1
    78    39    40 1
    79    39    41 1
@<TRIPOS>SUBSTRUCTURE
     1 DRD         1 TEMP              0 ****  ****    0 ROOT
