@<TRIPOS>MOLECULE
DRD
   75    79     1     0     0
SMALL
bcc


@<TRIPOS>ATOM
      1 CAV         0.3110    2.0560    2.4460 ca        1 DRD     -0.091000
      2 CAY         1.4730    2.7340    2.7960 ca        1 DRD     -0.144500
      3 CAX         2.1490    2.4010    3.9730 ca        1 DRD     -0.130000
      4 CAW         1.6570    1.3890    4.7920 ca        1 DRD     -0.144500
      5 CAZ         0.4810    0.7120    4.4510 ca        1 DRD     -0.091000
      6 CBA        -0.2020    1.0460    3.2790 ca        1 DRD     -0.172600
      7 CBB        -1.4510    0.3780    2.8420 c         1 DRD      0.606300
      8 OBO        -1.6160    0.0530    1.6570 o         1 DRD     -0.556100
      9 CBC        -2.5390    0.2010    3.8330 ca        1 DRD     -0.185600
     10 CBH        -2.3920   -0.5550    4.9720 ca        1 DRD     -0.043000
     11 CBD        -3.7870    0.8280    3.5670 ca        1 DRD     -0.088000
     12 CBG        -4.8330    0.7170    4.4490 ca        1 DRD     -0.156000
     13 CBF        -4.6990   -0.0240    5.6590 ca        1 DRD      0.006000
     14 CBK        -5.7500   -0.1300    6.6190 ca        1 DRD     -0.127300
     15 CBL        -7.0760    0.4990    6.3690 c3        1 DRD     -0.020100
     16 CBM        -7.0660    1.9880    6.6640 c3        1 DRD     -0.080400
     17 CBN        -8.4030    2.6150    6.3670 c3        1 DRD     -0.090100
     18 CBE        -3.4570   -0.6600    5.9090 ca        1 DRD     -0.073000
     19 CBI        -3.2560   -1.3790    7.1180 ca        1 DRD     -0.054000
     20 CBJ        -4.2640   -1.4690    8.0440 ca        1 DRD     -0.204000
     21 CAE        -5.5140   -0.8460    7.7900 ca        1 DRD      0.124100
     22 OAD        -6.5890   -0.9620    8.6640 os        1 DRD     -0.344900
     23 CAC        -6.2870   -1.2170   10.0340 c3        1 DRD      0.133400
     24 CAB        -5.5670   -0.0540   10.6890 c3        1 DRD     -0.150400
     25 CAA        -4.9260   -0.4480   12.0210 c3        1 DRD      0.038300
     26 NAT        -3.6950   -1.1880   11.9490 na        1 DRD     -0.074400
     27 CAU        -3.6900   -2.5890   11.6910 cc        1 DRD     -0.180100
     28 CAM        -2.5450   -2.9580   11.0110 cd        1 DRD     -0.124200
     29 CAN        -1.8040   -1.7450   10.7210 ca        1 DRD     -0.150800
     30 CAO        -2.5580   -0.6550   11.2830 ca        1 DRD     -0.026200
     31 CAR        -2.1180    0.6670   11.1670 ca        1 DRD     -0.206000
     32 CAQ        -0.9370    0.8910   10.4660 ca        1 DRD     -0.070000
     33 CAP        -0.1950   -0.1450    9.8940 ca        1 DRD     -0.227000
     34 CAS        -0.6140   -1.4780   10.0150 ca        1 DRD      0.221100
     35 OAF         0.0250   -2.5820    9.5250 os        1 DRD     -0.325900
     36 CAG         1.1910   -2.4240    8.6780 c3        1 DRD      0.034800
     37 CAL         1.3860   -3.8230    8.1000 c3        1 DRD     -0.090100
     38 CAK         2.3900   -2.0340    9.5240 c3        1 DRD     -0.090100
     39 CAH         0.9460   -1.4450    7.4900 c         1 DRD      0.910600
     40 OAJ         1.7730   -0.5100    7.3030 o         1 DRD     -0.836300
     41 OAI        -0.0510   -1.6580    6.7440 o         1 DRD     -0.836300
     42 HAP         0.7050    0.0980    9.3010 ha        1 DRD      0.185000
     43 HAQ        -0.5780    1.9240   10.3400 ha        1 DRD      0.122000
     44 HAR        -2.6890    1.4980   11.5980 ha        1 DRD      0.120000
     45 HAU        -4.4970   -3.2090   12.0820 h4        1 DRD      0.149000
     46 HAM        -2.2260   -3.9580   10.7310 ha        1 DRD      0.159000
     47 HAA1       -5.6590   -1.0580   12.6200 h1        1 DRD      0.048700
     48 HAA2       -4.7020    0.5010   12.5910 h1        1 DRD      0.048700
     49 HAB1       -4.7830    0.3410    9.9870 hc        1 DRD      0.068700
     50 HAB2       -6.2960    0.7750   10.8780 hc        1 DRD      0.068700
     51 HAC1       -5.7060   -2.1710   10.1400 h1        1 DRD      0.050200
     52 HAC2       -7.3090   -1.3610   10.4830 h1        1 DRD      0.050200
     53 HBJ        -4.0840   -2.0040    8.9900 ha        1 DRD      0.150000
     54 HBI        -2.2580   -1.8300    7.3000 ha        1 DRD      0.201000
     55 HBH        -1.4560   -1.1010    5.2070 ha        1 DRD      0.203000
     56 HBD        -3.8990    1.3990    2.6340 ha        1 DRD      0.127000
     57 HBG        -5.7900    1.2100    4.2270 ha        1 DRD      0.124000
     58 HBL1       -7.8570    0.0050    7.0090 hc        1 DRD      0.045200
     59 HBL2       -7.3800    0.3290    5.3010 hc        1 DRD      0.045200
     60 HBM1       -6.2680    2.4850    6.0530 hc        1 DRD      0.045200
     61 HBM2       -6.8040    2.1470    7.7430 hc        1 DRD      0.045200
     62 HBN1       -9.2070    2.1420    6.9820 hc        1 DRD      0.025367
     63 HBN2       -8.3800    3.7080    6.5970 hc        1 DRD      0.025367
     64 HBN3       -8.6680    2.4880    5.2890 hc        1 DRD      0.025367
     65 HAZ         0.1470   -0.0900    5.1420 ha        1 DRD      0.166000
     66 HAW         2.1720    1.0910    5.7250 ha        1 DRD      0.150500
     67 HAX         3.0690    2.9360    4.2480 ha        1 DRD      0.117000
     68 HAY         1.8610    3.5280    2.1440 ha        1 DRD      0.150500
     69 HAV        -0.2150    2.2980    1.5110 ha        1 DRD      0.166000
     70 HAL1        1.4300   -4.5840    8.9140 hc        1 DRD      0.037700
     71 HAL2        0.5360   -4.0620    7.4170 hc        1 DRD      0.037700
     72 HAL3        2.3400   -3.8410    7.5220 hc        1 DRD      0.037700
     73 HAK1        2.1330   -1.1940   10.2120 hc        1 DRD      0.037700
     74 HAK2        2.7360   -2.8990   10.1380 hc        1 DRD      0.037700
     75 HAK3        3.2140   -1.6980    8.8490 hc        1 DRD      0.037700
@<TRIPOS>BOND
     1    1    2 ar  
     2    1    6 ar  
     3    1   69 1   
     4    2    3 ar  
     5    2   68 1   
     6    3    4 ar  
     7    3   67 1   
     8    4    5 ar  
     9    4   66 1   
    10    5    6 ar  
    11    5   65 1   
    12    6    7 1   
    13    7    8 2   
    14    7    9 1   
    15    9   10 ar  
    16    9   11 ar  
    17   10   18 ar  
    18   10   55 1   
    19   11   12 ar  
    20   11   56 1   
    21   12   13 ar  
    22   12   57 1   
    23   13   14 ar  
    24   13   18 ar  
    25   14   15 1   
    26   14   21 ar  
    27   15   16 1   
    28   15   58 1   
    29   15   59 1   
    30   16   17 1   
    31   16   60 1   
    32   16   61 1   
    33   17   62 1   
    34   17   63 1   
    35   17   64 1   
    36   18   19 ar  
    37   19   20 ar  
    38   19   54 1   
    39   20   21 ar  
    40   20   53 1   
    41   21   22 1   
    42   22   23 1   
    43   23   24 1   
    44   23   51 1   
    45   23   52 1   
    46   24   25 1   
    47   24   49 1   
    48   24   50 1   
    49   25   26 1   
    50   25   47 1   
    51   25   48 1   
    52   26   27 1   
    53   26   30 1   
    54   27   28 2   
    55   27   45 1   
    56   28   29 1   
    57   28   46 1   
    58   29   30 ar  
    59   29   34 ar  
    60   30   31 ar  
    61   31   32 ar  
    62   31   44 1   
    63   32   33 ar  
    64   32   43 1   
    65   33   34 ar  
    66   33   42 1   
    67   34   35 1   
    68   35   36 1   
    69   36   37 1   
    70   36   38 1   
    71   36   39 1   
    72   37   70 1   
    73   37   71 1   
    74   37   72 1   
    75   38   73 1   
    76   38   74 1   
    77   38   75 1   
    78   39   40 1   
    79   39   41 1   
@<TRIPOS>SUBSTRUCTURE
     1 DRD         1 TEMP              0 ****  ****    0 ROOT
