@<TRIPOS>MOLECULE
molecule
   46    45     1     0     0
SMALL
bcc


@<TRIPOS>ATOM
      1 NAA          0.0000     0.0000     0.0000 nz         1 DRE      -0.810600
      2 CAB          1.4690     0.0000     0.0000 c3         1 DRE       0.091300
      3 CAC          1.9790     0.0000     1.4420 c3         1 DRE      -0.112400
      4 CAD          3.5090     0.0000     1.4410 c3         1 DRE      -0.074400
      5 CAE          4.0200     0.0010     2.8840 c3         1 DRE      -0.080400
      6 CAF          5.5490     0.0020     2.8840 c3         1 DRE      -0.082400
      7 CAG          6.0590     0.0020     4.3270 c3         1 DRE       0.147800
      8 NAH          7.5290     0.0020     4.3270 n7         1 DRE      -0.796200
      9 CAI          7.9510     0.0030     5.7340 c3         1 DRE       0.147800
     10 CAJ          9.4790     0.0030     5.8080 c3         1 DRE      -0.082400
     11 CAK          9.9190     0.0040     7.2730 c3         1 DRE      -0.080400
     12 CAL         11.4480     0.0030     7.3470 c3         1 DRE      -0.074400
     13 CAM         11.8870     0.0040     8.8130 c3         1 DRE      -0.112400
     14 CAN         13.4150     0.0050     8.8860 c3         1 DRE       0.091300
     15 NAO         13.8370     0.0050    10.2930 nz         1 DRE      -0.810600
     16 HAA1        -0.3340     0.8170     0.4720 hn         1 DRE       0.458300
     17 HAA2        -0.3340    -0.0000    -0.9440 hn         1 DRE       0.458300
     18 HAB1         1.8310     0.8850    -0.5110 hx         1 DRE       0.114200
     19 HAB2         1.8310    -0.8850    -0.5110 hx         1 DRE       0.114200
     20 HAC1         1.6190    -0.8850     1.9530 hc         1 DRE       0.066200
     21 HAC2         1.6180     0.8840     1.9530 hc         1 DRE       0.066200
     22 HAD1         3.8700     0.8850     0.9300 hc         1 DRE       0.059700
     23 HAD2         3.8700    -0.8840     0.9310 hc         1 DRE       0.059700
     24 HAE1         3.6590     0.8860     3.3950 hc         1 DRE       0.050200
     25 HAE2         3.6590    -0.8830     3.3960 hc         1 DRE       0.050200
     26 HAF1         5.9110    -0.8830     2.3730 hc         1 DRE       0.055700
     27 HAF2         5.9100     0.8870     2.3740 hc         1 DRE       0.055700
     28 HAG1         5.6980     0.8860     4.8370 h1         1 DRE       0.037200
     29 HAG2         5.6980    -0.8830     4.8370 h1         1 DRE       0.037200
     30 HAH          7.8620    -0.8280     3.8790 hn         1 DRE       0.353800
     31 HAI1         7.5650     0.8870     6.2260 h1         1 DRE       0.037200
     32 HAI2         7.5660    -0.8820     6.2270 h1         1 DRE       0.037200
     33 HAJ1         9.8650    -0.8810     5.3150 hc         1 DRE       0.055700
     34 HAJ2         9.8640     0.8880     5.3150 hc         1 DRE       0.055700
     35 HAK1         9.5330     0.8880     7.7650 hc         1 DRE       0.050200
     36 HAK2         9.5330    -0.8810     7.7650 hc         1 DRE       0.050200
     37 HAL1        11.8330    -0.8810     6.8550 hc         1 DRE       0.059700
     38 HAL2        11.8330     0.8880     6.8540 hc         1 DRE       0.059700
     39 HAM1        11.5010     0.8880     9.3050 hc         1 DRE       0.066200
     40 HAM2        11.5020    -0.8810     9.3050 hc         1 DRE       0.066200
     41 HAN1        13.8000    -0.8800     8.3940 hx         1 DRE       0.114200
     42 HAN2        13.8000     0.8890     8.3930 hx         1 DRE       0.114200
     43 HAO1        13.4820    -0.8120    10.7490 hn         1 DRE       0.458300
     44 HAO2        14.8370     0.0060    10.3420 hn         1 DRE       0.458300
     45 HAA3        -0.3340    -0.8170     0.4720 hn         1 DRE       0.458300
     46 HAO3        13.4750     0.8190    10.7500 hn         1 DRE       0.458300
@<TRIPOS>BOND
     1     1     2 1
     2     1    16 1
     3     1    17 1
     4     2     3 1
     5     2    18 1
     6     2    19 1
     7     3     4 1
     8     3    20 1
     9     3    21 1
    10     4     5 1
    11     4    22 1
    12     4    23 1
    13     5     6 1
    14     5    24 1
    15     5    25 1
    16     6     7 1
    17     6    26 1
    18     6    27 1
    19     7     8 1
    20     7    28 1
    21     7    29 1
    22     8     9 1
    23     8    30 1
    24     9    10 1
    25     9    31 1
    26     9    32 1
    27    10    11 1
    28    10    33 1
    29    10    34 1
    30    11    12 1
    31    11    35 1
    32    11    36 1
    33    12    13 1
    34    12    37 1
    35    12    38 1
    36    13    14 1
    37    13    39 1
    38    13    40 1
    39    14    15 1
    40    14    41 1
    41    14    42 1
    42    15    43 1
    43    15    44 1
    44    45     1 1
    45    46    15 1
@<TRIPOS>SUBSTRUCTURE
     1 DRE         1 TEMP              0 ****  ****    0 ROOT
