@<TRIPOS>MOLECULE
DRF
   55    58     1     0     0
SMALL
bcc


@<TRIPOS>ATOM
      1 O45          0.0000     0.0000     0.0000 o          1 DRF      -0.888300
      2 C44          1.3420     0.0000     0.0000 c          1 DRF       0.956600
      3 O55          1.9470     0.0020    -1.0460 o          1 DRF      -0.888300
      4 C41          2.0960     0.0000     1.3060 c3         1 DRF       0.059100
      5 O46          3.5000     0.0010     1.0460 os         1 DRF      -0.389600
      6 C48          3.9070    -1.3660     0.9690 c3         1 DRF       0.198400
      7 C49          5.4090    -1.4360     0.6900 c3         1 DRF      -0.005100
      8 C40          1.7240     1.2490     2.1090 c3         1 DRF       0.034900
      9 C33          2.4780     1.2480     3.4140 ca         1 DRF      -0.089300
     10 C34          3.7200     1.8480     3.4940 ca         1 DRF      -0.056000
     11 C35          4.4130     1.8480     4.6890 ca         1 DRF      -0.189500
     12 C30          3.8600     1.2480     5.8100 ca         1 DRF       0.099100
     13 O27          4.5390     1.2470     6.9860 os         1 DRF      -0.283900
     14 C24          3.7200     0.5620     7.9360 c3         1 DRF       0.149400
     15 C23          4.4310     0.5260     9.2900 c3         1 DRF      -0.026700
     16 N22          4.6710     1.8950     9.7520 na         1 DRF       0.197900
     17 C11          3.7410     2.5980    10.5410 ca         1 DRF      -0.170600
     18 C16          3.8580     3.9780    10.6440 ca         1 DRF       0.300000
     19 O21          4.7920     4.6900     9.9850 os         1 DRF      -0.342800
     20 C4           5.8650     3.9800     9.5850 ca         1 DRF       0.300000
     21 C3           5.8510     2.5960     9.4410 ca         1 DRF      -0.170600
     22 C2           6.9700     1.9160     9.0000 ca         1 DRF      -0.133500
     23 C1           8.1310     2.6110     8.7100 ca         1 DRF      -0.092000
     24 C6           8.1620     3.9830     8.8650 ca         1 DRF      -0.113000
     25 C5           7.0430     4.6660     9.2980 ca         1 DRF      -0.171800
     26 C15          2.9470     4.6640    11.4450 ca         1 DRF      -0.171800
     27 C14          1.9460     3.9830    12.1080 ca         1 DRF      -0.113000
     28 C13          1.8320     2.6110    11.9870 ca         1 DRF      -0.092000
     29 C12          2.7350     1.9160    11.2010 ca         1 DRF      -0.133500
     30 C31          2.6120     0.6470     5.7270 ca         1 DRF      -0.189500
     31 C32          1.9220     0.6540     4.5310 ca         1 DRF      -0.056000
     32 H41          1.8340    -0.8850     1.8730 h1         1 DRF       0.004700
     33 H481         3.3670    -1.8590     0.1690 h1         1 DRF      -0.005800
     34 H482         3.6900    -1.8610     1.9080 h1         1 DRF      -0.005800
     35 H491         5.6920    -0.6260     0.0280 hc         1 DRF      -0.003300
     36 H492         5.6460    -2.3840     0.2220 hc         1 DRF      -0.003300
     37 H493         5.9540    -1.3470     1.6220 hc         1 DRF      -0.003300
     38 H401         1.9850     2.1340     1.5420 hc         1 DRF       0.034200
     39 H402         0.6590     1.2470     2.3070 hc         1 DRF       0.034200
     40 H34          4.1520     2.3180     2.6180 ha         1 DRF       0.113000
     41 H35          5.3870     2.3190     4.7510 ha         1 DRF       0.111500
     42 H241         3.5420    -0.4510     7.5940 h1         1 DRF       0.021700
     43 H242         2.7740     1.0800     8.0370 h1         1 DRF       0.021700
     44 H231         5.3760     0.0080     9.1880 h1         1 DRF       0.035200
     45 H232         3.8100     0.0060    10.0090 h1         1 DRF       0.035200
     46 H2           6.9390     0.8400     8.8810 ha         1 DRF       0.115500
     47 H1           9.0120     2.0810     8.3710 ha         1 DRF       0.101500
     48 H6           9.0710     4.5290     8.6390 ha         1 DRF       0.100500
     49 H5           7.0810     5.7420     9.4150 ha         1 DRF       0.111500
     50 H15          3.0250     5.7400    11.5480 ha         1 DRF       0.111500
     51 H14          1.2400     4.5280    12.7230 ha         1 DRF       0.100500
     52 H13          1.0450     2.0820    12.5100 ha         1 DRF       0.101500
     53 H12          2.6530     0.8400    11.1010 ha         1 DRF       0.115500
     54 H31          2.1770     0.1790     6.6020 ha         1 DRF       0.111500
     55 H32          0.9470     0.1850     4.4670 ha         1 DRF       0.113000
@<TRIPOS>BOND
     1     1     2 1   
     2     2     3 1   
     3     2     4 1   
     4     4     5 1   
     5     4     8 1   
     6     4    32 1   
     7     5     6 1   
     8     6     7 1   
     9     6    33 1   
    10     6    34 1   
    11     7    35 1   
    12     7    36 1   
    13     7    37 1   
    14     8     9 1   
    15     8    38 1   
    16     8    39 1   
    17     9    10 ar  
    18     9    31 ar  
    19    10    11 ar  
    20    10    40 1   
    21    11    12 ar  
    22    11    41 1   
    23    12    13 1   
    24    12    30 ar  
    25    13    14 1   
    26    14    15 1   
    27    14    42 1   
    28    14    43 1   
    29    15    16 1   
    30    15    44 1   
    31    15    45 1   
    32    16    17 1   
    33    16    21 1   
    34    17    18 ar  
    35    17    29 ar  
    36    18    19 1   
    37    18    26 ar  
    38    19    20 1   
    39    20    21 ar  
    40    20    25 ar  
    41    21    22 ar  
    42    22    23 ar  
    43    22    46 1   
    44    23    24 ar  
    45    23    47 1   
    46    24    25 ar  
    47    24    48 1   
    48    25    49 1   
    49    26    27 ar  
    50    26    50 1   
    51    27    28 ar  
    52    27    51 1   
    53    28    29 ar  
    54    28    52 1   
    55    29    53 1   
    56    30    31 ar  
    57    30    54 1   
    58    31    55 1   
@<TRIPOS>SUBSTRUCTURE
     1 DRF         1 TEMP              0 ****  ****    0 ROOT
