@<TRIPOS>MOLECULE
DRG
   26    28     1     0     0
SMALL
bcc


@<TRIPOS>ATOM
      1 C4           0.0000     0.0000     0.0000 ca         1 DRG      -0.192300
      2 C14          1.3800     0.0000     0.0000 ca         1 DRG      -0.158600
      3 C5           2.1590     0.0000     1.2830 c3         1 DRG       0.035900
      4 C6           3.4370    -0.8200     1.1370 c3         1 DRG       0.033900
      5 C11          4.2040    -0.4050    -0.0900 ca         1 DRG      -0.073300
      6 C7           5.5840    -0.4170    -0.0820 ca         1 DRG      -0.108000
      7 C8           6.2880    -0.0580    -1.2160 ca         1 DRG      -0.086000
      8 C9           5.6170     0.3160    -2.3660 ca         1 DRG      -0.112000
      9 C10          4.2370     0.3400    -2.3840 ca         1 DRG      -0.056000
     10 C12          3.5250    -0.0100    -1.2430 ca         1 DRG      -0.147500
     11 C13          2.0440     0.0160    -1.2290 ca         1 DRG       0.400800
     12 N1           1.3480     0.0490    -2.3550 nb         1 DRG      -0.268000
     13 N2           0.0630     0.0470    -2.3560 nb         1 DRG      -0.299000
     14 C3          -0.6470     0.0250    -1.2370 ca         1 DRG       0.453200
     15 N3          -2.0370     0.0190    -1.2960 nv         1 DRG      -0.649500
     16 HC4         -0.5610    -0.0180     0.9270 ha         1 DRG       0.125000
     17 HC51         2.4290     1.0210     1.5220 hc         1 DRG       0.027700
     18 HC52         1.5480    -0.4490     2.0570 hc         1 DRG       0.027700
     19 HC61         3.1660    -1.8640     1.0370 hc         1 DRG       0.025700
     20 HC62         4.0590    -0.6450     2.0060 hc         1 DRG       0.025700
     21 HC7          6.1170    -0.7090     0.8150 ha         1 DRG       0.106000
     22 HC8          7.3710    -0.0750    -1.2060 ha         1 DRG       0.102000
     23 HC9          6.1750     0.5960    -3.2520 ha         1 DRG       0.106000
     24 H10C         3.7100     0.6320    -3.2840 ha         1 DRG       0.125000
     25 HN31        -2.5320    -0.8490    -1.3480 hn         1 DRG       0.278800
     26 HN32        -2.5400     0.8840    -1.3140 hn         1 DRG       0.278800
@<TRIPOS>BOND
     1     1     2 ar  
     2     1    14 ar  
     3     1    16 1   
     4     2     3 1   
     5     2    11 ar  
     6     3     4 1   
     7     3    17 1   
     8     3    18 1   
     9     4     5 1   
    10     4    19 1   
    11     4    20 1   
    12     5     6 ar  
    13     5    10 ar  
    14     6     7 ar  
    15     6    21 1   
    16     7     8 ar  
    17     7    22 1   
    18     8     9 ar  
    19     8    23 1   
    20     9    10 ar  
    21     9    24 1   
    22    10    11 1   
    23    11    12 ar  
    24    12    13 ar  
    25    13    14 ar  
    26    14    15 1   
    27    15    25 1   
    28    15    26 1   
@<TRIPOS>SUBSTRUCTURE
     1 DRG         1 TEMP              0 ****  ****    0 ROOT
