@<TRIPOS>MOLECULE
DRJ
   68    70     1     0     0
SMALL
bcc


@<TRIPOS>ATOM
      1 CAB         1.3280    0.2670   -0.4930 c3        1 DRJ     -0.086100
      2 CAO         2.6010    0.8170    0.0920 c3        1 DRJ     -0.067400
      3 CBG         2.6070    0.8860    1.6200 c3        1 DRJ      0.036800
      4 CAZ         3.9990    1.4370    2.0740 c         1 DRJ      0.901600
      5 OAE         5.0350    0.8740    1.6270 o         1 DRJ     -0.829800
      6 OAD         4.0140    2.4380    2.8450 o         1 DRJ     -0.829800
      7 CAC         1.4800    1.7460    2.1620 c3        1 DRJ     -0.092100
      8 OAX         2.3860   -0.4870    2.0490 os        1 DRJ     -0.360900
      9 CBB         2.7160   -0.7620    3.3620 ca        1 DRJ      0.142100
     10 CAK         1.6890   -0.8710    4.3110 ca        1 DRJ     -0.143000
     11 CAI         1.9960   -1.2500    5.6160 ca        1 DRJ     -0.130000
     12 CAJ         4.0440   -1.0520    3.7170 ca        1 DRJ     -0.143000
     13 CAH         4.3310   -1.4340    5.0220 ca        1 DRJ     -0.130000
     14 CBA         3.3170   -1.5180    5.9870 ca        1 DRJ     -0.128300
     15 CAT         3.6550   -1.8690    7.3910 c3        1 DRJ     -0.054100
     16 CAV         4.5500   -0.8210    8.0620 c3        1 DRJ      0.215800
     17 NBF         3.9290    0.4420    8.4120 nh        1 DRJ     -0.697600
     18 CAU         3.7910    1.4410    7.3610 c3        1 DRJ      0.192800
     19 CAS         5.0680    2.2450    7.1140 c3        1 DRJ     -0.080400
     20 CAR         4.8530    3.1690    5.9340 c3        1 DRJ     -0.102400
     21 CAQ         6.1210    3.9170    5.5830 c3        1 DRJ     -0.057400
     22 CAP         5.9310    4.7010    4.3010 c3        1 DRJ     -0.100400
     23 CAN         7.2220    5.3530    3.8560 c3        1 DRJ     -0.072400
     24 CAA         7.0300    6.1390    2.5850 c3        1 DRJ     -0.089100
     25 CBC         3.0940    0.4750    9.5030 cc        1 DRJ      0.774500
     26 OAY         2.3920    1.7190    9.7260 os        1 DRJ     -0.324700
     27 CBE         1.7160    1.5100   10.9280 ca        1 DRJ      0.010100
     28 CAM         0.8900    2.3880   11.6060 ca        1 DRJ     -0.103000
     29 CAG         0.3340    1.9160   12.7990 ca        1 DRJ     -0.149000
     30 CAF         0.6040    0.6280   13.2720 ca        1 DRJ     -0.138000
     31 CAL         1.4380   -0.2570   12.5860 ca        1 DRJ     -0.109000
     32 CBD         2.0120    0.1780   11.3900 ca        1 DRJ      0.110400
     33 NAW         2.8730   -0.4500   10.4730 nd        1 DRJ     -0.658100
     34 HAB1        1.4380    0.1280   -1.5960 hc        1 DRJ      0.020700
     35 HAB2        0.4710    0.9600   -0.3120 hc        1 DRJ      0.020700
     36 HAB3        1.0840   -0.7200   -0.0310 hc        1 DRJ      0.020700
     37 HAO1        3.4720    0.1800   -0.2170 hc        1 DRJ      0.054700
     38 HAO2        2.7850    1.8560   -0.2880 hc        1 DRJ      0.054700
     39 HAC1        1.5560    1.7980    3.2750 hc        1 DRJ      0.031367
     40 HAC2        1.5790    2.7800    1.7540 hc        1 DRJ      0.031367
     41 HAC3        0.4860    1.3240    1.8840 hc        1 DRJ      0.031367
     42 HAK         0.6550   -0.6440    4.0180 ha        1 DRJ      0.163500
     43 HAI         1.1920   -1.3250    6.3630 ha        1 DRJ      0.118000
     44 HAJ         4.8390   -0.9220    2.9590 ha        1 DRJ      0.163500
     45 HAH         5.3700   -1.6570    5.3040 ha        1 DRJ      0.118000
     46 HAT1        4.2210   -2.8390    7.4050 hc        1 DRJ      0.053700
     47 HAT2        2.7220   -2.0180    7.9970 hc        1 DRJ      0.053700
     48 HAV1        5.4020   -0.5710    7.3650 h1        1 DRJ      0.065200
     49 HAV2        4.9790   -1.2720    9.0020 h1        1 DRJ      0.065200
     50 HAU1        3.5060    0.9120    6.4020 h1        1 DRJ      0.076700
     51 HAU2        2.9610    2.1570    7.6190 h1        1 DRJ      0.076700
     52 HAS1        5.3360    2.8370    8.0280 hc        1 DRJ      0.036200
     53 HAS2        5.9260    1.5560    6.8970 hc        1 DRJ      0.036200
     54 HAR1        4.0390    3.9020    6.1730 hc        1 DRJ      0.074700
     55 HAR2        4.5160    2.5820    5.0300 hc        1 DRJ      0.074700
     56 HAQ1        6.4080    4.6060    6.4200 hc        1 DRJ      0.020200
     57 HAQ2        6.9620    3.1870    5.4500 hc        1 DRJ      0.020200
     58 HAP1        5.1470    5.4870    4.4560 hc        1 DRJ      0.073200
     59 HAP2        5.5480    4.0050    3.4980 hc        1 DRJ      0.073200
     60 HAN1        7.6060    6.0290    4.6650 hc        1 DRJ      0.023700
     61 HAN2        8.0000    4.5610    3.6910 hc        1 DRJ      0.023700
     62 HAA1        6.2880    6.9600    2.7380 hc        1 DRJ      0.027367
     63 HAA2        6.6530    5.4740    1.7710 hc        1 DRJ      0.027367
     64 HAA3        7.9960    6.5940    2.2560 hc        1 DRJ      0.027367
     65 HAM         0.6830    3.3960   11.2260 ha        1 DRJ      0.145000
     66 HAG        -0.3300    2.5750   13.3760 ha        1 DRJ      0.125000
     67 HAF         0.1440    0.2990   14.2160 ha        1 DRJ      0.122000
     68 HAL         1.6380   -1.2660   12.9720 ha        1 DRJ      0.142000
@<TRIPOS>BOND
     1    1    2 1   
     2    1   34 1   
     3    1   35 1   
     4    1   36 1   
     5    2    3 1   
     6    2   37 1   
     7    2   38 1   
     8    3    4 1   
     9    3    7 1   
    10    3    8 1   
    11    4    5 1   
    12    4    6 1   
    13    7   39 1   
    14    7   40 1   
    15    7   41 1   
    16    8    9 1   
    17    9   10 ar  
    18    9   12 ar  
    19   10   11 ar  
    20   10   42 1   
    21   11   14 ar  
    22   11   43 1   
    23   12   13 ar  
    24   12   44 1   
    25   13   14 ar  
    26   13   45 1   
    27   14   15 1   
    28   15   16 1   
    29   15   46 1   
    30   15   47 1   
    31   16   17 1   
    32   16   48 1   
    33   16   49 1   
    34   17   18 1   
    35   17   25 1   
    36   18   19 1   
    37   18   50 1   
    38   18   51 1   
    39   19   20 1   
    40   19   52 1   
    41   19   53 1   
    42   20   21 1   
    43   20   54 1   
    44   20   55 1   
    45   21   22 1   
    46   21   56 1   
    47   21   57 1   
    48   22   23 1   
    49   22   58 1   
    50   22   59 1   
    51   23   24 1   
    52   23   60 1   
    53   23   61 1   
    54   24   62 1   
    55   24   63 1   
    56   24   64 1   
    57   25   26 1   
    58   25   33 2   
    59   26   27 1   
    60   27   28 ar  
    61   27   32 ar  
    62   28   29 ar  
    63   28   65 1   
    64   29   30 ar  
    65   29   66 1   
    66   30   31 ar  
    67   30   67 1   
    68   31   32 ar  
    69   31   68 1   
    70   32   33 1   
@<TRIPOS>SUBSTRUCTURE
     1 DRJ         1 TEMP              0 ****  ****    0 ROOT
