@<TRIPOS>MOLECULE
molecule
   46    49     1     0     0
SMALL
bcc


@<TRIPOS>ATOM
      1 OAA          0.0000     0.0000     0.0000 o          1 DRK      -0.461100
      2 CAS          1.2200     0.0000     0.0000 c          1 DRK       0.687700
      3 NAP          1.9970     0.0000     1.0670 nc         1 DRK      -0.445400
      4 CAW          3.3190    -0.0000     0.7480 ca         1 DRK       0.157000
      5 CAH          4.4670    -0.0010     1.5450 ca         1 DRK      -0.169000
      6 CAE          5.7170    -0.0010     0.9570 ca         1 DRK      -0.044000
      7 CAG          5.8540    -0.0000    -0.4220 ca         1 DRK      -0.178000
      8 CAK          4.7340     0.0000    -1.2320 ca         1 DRK      -0.046000
      9 CAZ          3.4670     0.0000    -0.6570 ca         1 DRK      -0.176000
     10 CAV          2.0990    -0.0050    -1.2070 cc         1 DRK       0.001800
     11 CAT          1.7190    -0.0110    -2.5350 cc         1 DRK      -0.104100
     12 NAQ          1.7690    -1.0900    -3.3960 na         1 DRK      -0.150400
     13 CAX          1.3030    -0.7080    -4.6430 ca         1 DRK      -0.016200
     14 CAI          1.1560    -1.4170    -5.8310 ca         1 DRK      -0.156000
     15 CAD          0.6580    -0.7870    -6.9540 ca         1 DRK      -0.089000
     16 CAF          0.2990     0.5530    -6.9140 ca         1 DRK      -0.167000
     17 CAJ          0.4330     1.2710    -5.7600 ca         1 DRK      -0.053000
     18 CAY          0.9370     0.6530    -4.6050 ca         1 DRK      -0.124800
     19 CAU          1.1780     1.1280    -3.2910 cd         1 DRK       0.159800
     20 NAO          0.9610     2.3880    -2.8260 nu         1 DRK      -0.539500
     21 OAR          1.1190     3.3750    -3.8940 os         1 DRK      -0.196100
     22 CAM          0.9050     4.7240    -3.4750 c3         1 DRK       0.114400
     23 CAN          1.0970     5.6650    -4.6650 c3         1 DRK      -0.079400
     24 CBA          0.8670     7.1100    -4.2160 c3         1 DRK       0.153100
     25 OAC         -0.4960     7.2740    -3.8200 oh         1 DRK      -0.602800
     26 CAL          1.1800     8.0600    -5.3740 c3         1 DRK       0.118400
     27 OAB          1.0770     9.4120    -4.9220 oh         1 DRK      -0.612800
     28 HAH          4.3770    -0.0010     2.6240 ha         1 DRK       0.155000
     29 HAE          6.6020    -0.0010     1.5820 ha         1 DRK       0.139000
     30 HAG          6.8420     0.0000    -0.8670 ha         1 DRK       0.140000
     31 HAK          4.8420     0.0000    -2.3100 ha         1 DRK       0.141000
     32 HAI          1.4330    -2.4630    -5.8750 ha         1 DRK       0.129000
     33 HAD          0.5460    -1.3440    -7.8760 ha         1 DRK       0.132000
     34 HAF         -0.0900     1.0330    -7.8040 ha         1 DRK       0.132000
     35 HAJ          0.1510     2.3170    -5.7360 ha         1 DRK       0.145000
     36 HNAO         0.2950     2.5440    -2.0960 hn         1 DRK       0.450800
     37 HAM         -0.1030     4.8270    -3.0920 h1         1 DRK       0.042200
     38 HAMA         1.6140     4.9770    -2.6960 h1         1 DRK       0.042200
     39 HAN          0.3880     5.4120    -5.4440 hc         1 DRK       0.064200
     40 HANA         2.1050     5.5620    -5.0480 hc         1 DRK       0.064200
     41 HBA          1.5160     7.3350    -3.3790 h1         1 DRK       0.044700
     42 HOAC        -0.5390     7.8460    -3.0720 ho         1 DRK       0.414000
     43 HAL          2.1850     7.8740    -5.7320 h1         1 DRK       0.031700
     44 HALA         0.4730     7.8940    -6.1790 h1         1 DRK       0.031700
     45 HOAB         1.3630     9.9950    -5.6060 ho         1 DRK       0.407000
     46 HNAQ         2.0910    -2.0060    -3.1560 hn         1 DRK       0.310700
@<TRIPOS>BOND
     1     1     2 2
     2     2     3 1
     3     3     4 2
     4     4     5 ar
     5     5     6 ar
     6     5    28 1
     7     6    29 1
     8     7     6 ar
     9     7    30 1
    10     8     7 ar
    11     8    31 1
    12     9     4 ar
    13     9     8 ar
    14    10     2 1
    15    10     9 2
    16    11    10 1
    17    12    11 1
    18    12    46 1
    19    13    12 1
    20    13    18 ar
    21    14    13 ar
    22    14    32 1
    23    15    14 ar
    24    15    16 ar
    25    15    33 1
    26    16    17 ar
    27    16    34 1
    28    17    18 ar
    29    17    35 1
    30    18    19 1
    31    19    11 2
    32    19    20 1
    33    20    36 1
    34    21    20 1
    35    21    22 1
    36    22    23 1
    37    22    37 1
    38    22    38 1
    39    23    39 1
    40    23    40 1
    41    24    23 1
    42    24    25 1
    43    24    41 1
    44    25    42 1
    45    26    24 1
    46    26    43 1
    47    26    44 1
    48    27    26 1
    49    27    45 1
@<TRIPOS>SUBSTRUCTURE
     1 DRK         1 TEMP              0 ****  ****    0 ROOT
