@<TRIPOS>MOLECULE
molecule
   22    23     1     0     0
SMALL
bcc


@<TRIPOS>ATOM
      1 C1A          0.0000     0.0000     0.0000 c3         1 DRL      -0.132400
      2 C1I          1.5070     0.0000     0.0000 cc         1 DRL       0.501900
      3 N1G          2.1460     0.0000     1.1300 nd         1 DRL      -0.678300
      4 C1J          3.4970    -0.0040     1.2150 cd         1 DRL       0.211400
      5 C1D          4.0350     0.0500     2.6160 c3         1 DRL      -0.031200
      6 C1C          5.4670    -0.4510     2.7350 c3         1 DRL       0.017700
      7 S1H          6.4750     0.4570     1.5210 ss         1 DRL      -0.351200
      8 C1E          5.7150    -0.0910    -0.0320 c3         1 DRL       0.094900
      9 C1K          4.2120    -0.0330     0.0740 cc         1 DRL      -0.265400
     10 C1L          3.5150    -0.0160    -1.1660 c          1 DRL       0.688700
     11 O1B          4.1340    -0.0150    -2.2170 o          1 DRL      -0.642500
     12 N1F          2.1710    -0.0050    -1.1740 ns         1 DRL      -0.448400
     13 H1A         -0.3610     0.9160    -0.4520 hc         1 DRL       0.068367
     14 H1AA        -0.3610    -0.8490    -0.5680 hc         1 DRL       0.068367
     15 H1AB        -0.3610    -0.0670     1.0190 hc         1 DRL       0.068367
     16 H1D          3.4030    -0.5580     3.2520 hc         1 DRL       0.076700
     17 H1DA         3.9980     1.0760     2.9610 hc         1 DRL       0.076700
     18 H1C          5.8390    -0.2600     3.7350 h1         1 DRL       0.075700
     19 H1CA         5.5040    -1.5120     2.5210 h1         1 DRL       0.075700
     20 H1E          6.0310     0.5740    -0.8260 h1         1 DRL       0.092700
     21 H1EA         6.0100    -1.1160    -0.2180 h1         1 DRL       0.092700
     22 HN1F         1.6690    -0.0020    -2.0400 hn         1 DRL       0.340500
@<TRIPOS>BOND
     1     1     2 1
     2     2     3 2
     3     2    12 1
     4     3     4 1
     5     4     5 1
     6     4     9 2
     7     5     6 1
     8     6     7 1
     9     7     8 1
    10     8     9 1
    11     9    10 1
    12    10    11 2
    13    10    12 1
    14     1    13 1
    15     1    14 1
    16     1    15 1
    17     5    16 1
    18     5    17 1
    19     6    18 1
    20     6    19 1
    21     8    20 1
    22     8    21 1
    23    12    22 1
@<TRIPOS>SUBSTRUCTURE
     1 DRL         1 TEMP              0 ****  ****    0 ROOT
