@<TRIPOS>MOLECULE
DRL
   22    23     1     0     0
SMALL
bcc


@<TRIPOS>ATOM
      1 C1A          0.0000     0.0000     0.0000 c3         1 DRL      -0.025400
      2 C1I          1.5070     0.0000     0.0000 cc         1 DRL       0.288900
      3 N1G          2.1460     0.0000     1.1300 nd         1 DRL      -0.568300
      4 C1J          3.4970    -0.0040     1.2150 cd         1 DRL       0.171400
      5 C1D          4.0350     0.0500     2.6160 c3         1 DRL       0.026800
      6 C1C          5.4670    -0.4510     2.7350 c3         1 DRL       0.088700
      7 S1H          6.4750     0.4570     1.5210 ss         1 DRL      -0.406200
      8 C1E          5.7150    -0.0910    -0.0320 c3         1 DRL       0.183900
      9 C1K          4.2120    -0.0330     0.0740 cc         1 DRL      -0.276400
     10 C1L          3.5150    -0.0160    -1.1660 c          1 DRL       0.590700
     11 O1B          4.1340    -0.0150    -2.2170 o          1 DRL      -0.684500
     12 N1F          2.1710    -0.0050    -1.1740 ns         1 DRL       0.035600
     13 H1A         -0.3610     0.9160    -0.4520 hc         1 DRL       0.025033
     14 H1AA        -0.3610    -0.8490    -0.5680 hc         1 DRL       0.025033
     15 H1AB        -0.3610    -0.0670     1.0190 hc         1 DRL       0.025033
     16 H1D          3.4030    -0.5580     3.2520 hc         1 DRL       0.043700
     17 H1DA         3.9980     1.0760     2.9610 hc         1 DRL       0.043700
     18 H1C          5.8390    -0.2600     3.7350 h1         1 DRL       0.048700
     19 H1CA         5.5040    -1.5120     2.5210 h1         1 DRL       0.048700
     20 H1E          6.0310     0.5740    -0.8260 h1         1 DRL       0.065200
     21 H1EA         6.0100    -1.1160    -0.2180 h1         1 DRL       0.065200
     22 HN1F         1.6690    -0.0020    -2.0400 hn         1 DRL       0.183500
@<TRIPOS>BOND
     1     1     2 1   
     2     1    13 1   
     3     1    14 1   
     4     1    15 1   
     5     2     3 2   
     6     2    12 1   
     7     3     4 1   
     8     4     5 1   
     9     4     9 2   
    10     5     6 1   
    11     5    16 1   
    12     5    17 1   
    13     6     7 1   
    14     6    18 1   
    15     6    19 1   
    16     7     8 1   
    17     8     9 1   
    18     8    20 1   
    19     8    21 1   
    20     9    10 1   
    21    10    11 2   
    22    10    12 1   
    23    12    22 1   
@<TRIPOS>SUBSTRUCTURE
     1 DRL         1 TEMP              0 ****  ****    0 ROOT
