@<TRIPOS>MOLECULE
molecule
   57    61     1     0     0
SMALL
bcc


@<TRIPOS>ATOM
      1 CBD          0.0000     0.0000     0.0000 c2         1 DRN       0.413100
      2 NBC          1.3380     0.0000     0.0000 n2         1 DRN      -0.620100
      3 CBF         -3.5540    -0.4870     1.0040 c3         1 DRN      -0.112400
      4 CBE         -2.2080    -1.1770     1.1310 c3         1 DRN      -0.047300
      5 NAH         -4.5340     0.1780     6.9490 na         1 DRN      -0.026400
      6 CAW         -5.7120    -0.4480     6.9340 cc         1 DRN      -0.042100
      7 CAE         -4.3540     0.8700     5.8250 ca         1 DRN      -0.060200
      8 CAF         -3.3100     1.6840     5.3750 ca         1 DRN      -0.140000
      9 CAA         -3.4050     2.2940     4.1280 ca         1 DRN      -0.127000
     10 CAB         -4.5380     2.1020     3.3290 ca         1 DRN      -0.179000
     11 CAC         -5.5780     1.2960     3.7900 ca         1 DRN      -0.074000
     12 CAD         -5.4890     0.6690     5.0390 ca         1 DRN      -0.079800
     13 CAG         -6.3320    -0.1830     5.7720 cd         1 DRN      -0.124200
     14 CAI         -7.6030    -0.6630     5.3730 cd         1 DRN      -0.041200
     15 CAT         -8.6680    -0.8980     6.2450 c          1 DRN       0.689700
     16 OAZ         -8.6550    -0.6950     7.4580 o          1 DRN      -0.582500
     17 NAU         -9.7350    -1.3420     5.5740 ns         1 DRN      -0.578500
     18 CAV         -9.4100    -1.4350     4.2820 c          1 DRN       0.696700
     19 OAX        -10.1840    -1.8290     3.3990 o          1 DRN      -0.578500
     20 CAJ         -8.0880    -1.0200     4.1070 cc         1 DRN      -0.103200
     21 CAK         -7.3960    -0.9650     2.8920 cc         1 DRN      -0.070200
     22 CAM         -7.9090    -0.3840     1.7260 ca         1 DRN      -0.091800
     23 CAP         -9.1190     0.2350     1.3960 ca         1 DRN      -0.047000
     24 CAQ         -9.3350     0.7200     0.1090 ca         1 DRN      -0.149000
     25 CAR         -8.3390     0.5900    -0.8480 ca         1 DRN      -0.086000
     26 CAS         -7.1360    -0.0280    -0.5150 ca         1 DRN      -0.168000
     27 CAN         -6.9160    -0.5210     0.7650 ca         1 DRN      -0.050200
     28 NAO         -5.8960    -1.1330     1.3690 na         1 DRN      -0.039400
     29 CAL         -6.1730    -1.4140     2.6340 cd         1 DRN      -0.098100
     30 CA0         -4.6250    -1.5190     0.7460 c3         1 DRN       0.047300
     31 SAT         -0.8680     0.0000     1.5470 ss         1 DRN      -0.022300
     32 NAB         -0.6690     0.0010    -1.1630 nz         1 DRN      -0.784600
     33 HBC          1.8390     0.0000    -0.8660 hn         1 DRN       0.428400
     34 HAB1        -0.1330     0.4830    -1.8560 hn         1 DRN       0.464800
     35 HAB2        -1.5490     0.4620    -1.0410 hn         1 DRN       0.464800
     36 HBF1        -3.5240     0.2160     0.1800 hc         1 DRN       0.073200
     37 HBF2        -3.7770     0.0430     1.9220 hc         1 DRN       0.073200
     38 HBE1        -1.9710    -1.6620     0.1910 h1         1 DRN       0.079700
     39 HBE2        -2.2700    -1.9290     1.9090 h1         1 DRN       0.079700
     40 HA01        -4.7700    -1.6210    -0.3230 h1         1 DRN       0.061700
     41 HA02        -4.3050    -2.4710     1.1530 h1         1 DRN       0.061700
     42 HAY1        -3.9340    -0.5070     8.8710 h1         1 DRN       0.061033
     43 HAY2        -2.6060    -0.2760     7.7250 h1         1 DRN       0.061033
     44 HAY3        -3.3880     1.1260     8.4690 h1         1 DRN       0.061033
     45 HAW         -6.1050    -1.0700     7.7300 h4         1 DRN       0.194000
     46 HAF         -2.4320     1.8350     5.9920 ha         1 DRN       0.131000
     47 HAA         -2.5960     2.9200     3.7720 ha         1 DRN       0.125000
     48 HAB         -4.6070     2.5790     2.3590 ha         1 DRN       0.125000
     49 HAC         -6.4560     1.1450     3.1730 ha         1 DRN       0.151000
     50 HAU        -10.6210    -1.5810     5.9740 hn         1 DRN       0.365500
     51 HAL         -5.8370    -2.3480     3.0690 h4         1 DRN       0.179000
     52 HAP         -9.8950     0.3350     2.1460 ha         1 DRN       0.151000
     53 HAQ        -10.2730     1.1990    -0.1420 ha         1 DRN       0.146000
     54 HAR         -8.4980     0.9640    -1.8520 ha         1 DRN       0.137000
     55 HAS         -6.3610    -0.1270    -1.2660 ha         1 DRN       0.106000
     56 HAB3        -0.8220    -0.9430    -1.4600 hn         1 DRN       0.464800
     57 CAY         -3.5460     0.1270     8.0830 c3         1 DRN       0.031600
@<TRIPOS>BOND
     1     1     2 2
     2     1    31 1
     3     1    32 1
     4     3     4 1
     5     3    30 1
     6     4    31 1
     7    57     5 1
     8     5     6 1
     9     5     7 1
    10     6    13 2
    11     7     8 ar
    12     7    12 ar
    13     8     9 ar
    14     9    10 ar
    15    10    11 ar
    16    11    12 ar
    17    12    13 1
    18    13    14 1
    19    14    15 1
    20    14    20 2
    21    15    16 2
    22    15    17 1
    23    17    18 1
    24    18    19 2
    25    18    20 1
    26    20    21 1
    27    21    22 1
    28    21    29 2
    29    22    23 ar
    30    22    27 ar
    31    23    24 ar
    32    24    25 ar
    33    25    26 ar
    34    26    27 ar
    35    27    28 1
    36    28    29 1
    37    28    30 1
    38     2    33 1
    39    32    34 1
    40    32    35 1
    41     3    36 1
    42     3    37 1
    43     4    38 1
    44     4    39 1
    45    30    40 1
    46    30    41 1
    47    57    42 1
    48    57    43 1
    49    57    44 1
    50     6    45 1
    51     8    46 1
    52     9    47 1
    53    10    48 1
    54    11    49 1
    55    17    50 1
    56    29    51 1
    57    23    52 1
    58    24    53 1
    59    25    54 1
    60    26    55 1
    61    56    32 1
@<TRIPOS>SUBSTRUCTURE
     1 DRN         1 TEMP              0 ****  ****    0 ROOT
