@<TRIPOS>MOLECULE
DRO
   73    78     1     0     0
SMALL
bcc


@<TRIPOS>ATOM
      1 CBF          0.0000     0.0000     0.0000 ca         1 DRO      -0.089750
      2 CBG          1.3810     0.0000     0.0000 ca         1 DRO      -0.093000
      3 CBH          2.0740     0.0000     1.1960 ca         1 DRO      -0.087000
      4 CBI          1.3860    -0.0010     2.3970 ca         1 DRO      -0.093000
      5 CBJ          0.0050    -0.0010     2.4030 ca         1 DRO      -0.089750
      6 CBE         -0.6930    -0.0000     1.2030 ca         1 DRO      -0.103400
      7 NBB         -2.0930     0.0000     1.2060 n          1 DRO       0.134800
      8 CBD         -2.7910     1.1210     1.6700 ca         1 DRO      -0.103400
      9 CBK         -3.5100     1.0510     2.8580 ca         1 DRO      -0.089750
     10 CBL         -4.1970     2.1590     3.3130 ca         1 DRO      -0.093000
     11 CBM         -4.1730     3.3350     2.5870 ca         1 DRO      -0.087000
     12 CBN         -3.4600     3.4090     1.4050 ca         1 DRO      -0.093000
     13 CBO         -2.7640     2.3060     0.9480 ca         1 DRO      -0.089750
     14 CBA         -2.7680    -1.0780     0.7630 c          1 DRO       0.516600
     15 OBC         -2.1640    -2.0820     0.4360 o          1 DRO      -0.629100
     16 CAH         -4.2410    -1.0420     0.6730 cc         1 DRO       0.296800
     17 NAG         -4.9540    -0.4430    -0.2590 nd         1 DRO      -0.644800
     18 CAI         -5.1530    -1.6490     1.5720 cc         1 DRO      -0.188900
     19 Cl1         -4.7730    -2.5780     2.9880 cl         1 DRO       0.058600
     20 CAJ         -6.3850    -1.3520     1.0930 cd         1 DRO      -0.311600
     21 CAK         -7.7030    -1.7680     1.6930 c3         1 DRO       0.099200
     22 NAF         -6.2080    -0.6100    -0.0330 na         1 DRO       0.718300
     23 CAE         -7.2390    -0.1050    -0.8290 ca         1 DRO      -0.097200
     24 CAA         -8.3050     0.5650    -0.2460 ca         1 DRO      -0.095000
     25 CAB         -9.3230     1.0640    -1.0340 ca         1 DRO      -0.041000
     26 CAC         -9.2900     0.8980    -2.4090 ca         1 DRO      -0.084000
     27 CAY         -8.2380     0.2360    -3.0050 ca         1 DRO      -0.081000
     28 CAD         -7.1980    -0.2680    -2.2210 ca         1 DRO      -0.170600
     29 CAL         -6.0670    -0.9740    -2.8530 c          1 DRO       0.658700
     30 OAN         -5.6660    -2.0220    -2.3850 o          1 DRO      -0.741100
     31 NAM         -5.4780    -0.4570    -3.9500 n          1 DRO      -0.141800
     32 CAQ         -5.8520     0.8650    -4.4640 c3         1 DRO       0.106300
     33 CAR         -4.6070     1.6400    -4.8210 ca         1 DRO      -0.125300
     34 CAW         -4.7450     2.9940    -5.0920 ca         1 DRO      -0.083000
     35 CAV         -3.6460     3.7560    -5.4340 ca         1 DRO      -0.078000
     36 CAU         -2.3990     3.1630    -5.5080 ca         1 DRO      -0.074000
     37 CAT         -2.2600     1.8190    -5.2340 ca         1 DRO      -0.087000
     38 CAS         -3.3650     1.0520    -4.8830 ca         1 DRO      -0.090300
     39 CAP         -3.1330    -0.4040    -4.5710 c3         1 DRO       0.030900
     40 CAO         -4.4300    -1.1940    -4.6760 c3         1 DRO       0.030700
     41 CAX         -4.2410    -2.5770    -4.0490 c3         1 DRO      -0.081200
     42 NAZ         -5.4710    -3.3640    -4.2180 nz         1 DRO       0.066400
     43 HBF         -0.5420     0.0000    -0.9380 ha         1 DRO       0.110000
     44 HBG          1.9230     0.0000    -0.9380 ha         1 DRO       0.107750
     45 HBH          3.1570     0.0000     1.1940 ha         1 DRO       0.108000
     46 HBI          1.9320    -0.0010     3.3330 ha         1 DRO       0.107750
     47 HBJ         -0.5330    -0.0010     3.3440 ha         1 DRO       0.110000
     48 HBK         -3.5290     0.1290     3.4260 ha         1 DRO       0.110000
     49 HBO         -2.2050     2.3630     0.0220 ha         1 DRO       0.110000
     50 HBL         -4.7570     2.1050     4.2380 ha         1 DRO       0.107750
     51 HBM         -4.7150     4.2020     2.9460 ha         1 DRO       0.108000
     52 HBN         -3.4410     4.3330     0.8410 ha         1 DRO       0.107750
     53 HAK1        -7.5410    -2.5820     2.3890 hc         1 DRO       0.017700
     54 HAK2        -8.3720    -2.0930     0.9060 hc         1 DRO       0.017700
     55 HAK3        -8.1420    -0.9270     2.2170 hc         1 DRO       0.017700
     56 HAA         -8.3380     0.6980     0.8290 ha         1 DRO       0.136000
     57 HAB        -10.1540     1.5860    -0.5740 ha         1 DRO       0.123000
     58 HAC        -10.0950     1.2910    -3.0190 ha         1 DRO       0.122000
     59 HAY         -8.2150     0.1110    -4.0810 ha         1 DRO       0.109000
     60 HAQ1        -6.4490     0.7350    -5.3580 h1         1 DRO       0.046700
     61 HAQ2        -6.3860     1.4010    -3.6900 h1         1 DRO       0.046700
     62 HAO         -4.7120    -1.2950    -5.7170 h1         1 DRO       0.040700
     63 HAW         -5.7230     3.4580    -5.0340 ha         1 DRO       0.110000
     64 HAV         -3.7610     4.8110    -5.6480 ha         1 DRO       0.117000
     65 HAU         -1.5320     3.7550    -5.7760 ha         1 DRO       0.117000
     66 HAT         -1.2820     1.3570    -5.2930 ha         1 DRO       0.113000
     67 HAP1        -2.4150    -0.8080    -5.2740 hc         1 DRO       0.045700
     68 HAP2        -2.7440    -0.4930    -3.5640 hc         1 DRO       0.045700
     69 HAX1        -3.4180    -3.0840    -4.5360 hx         1 DRO       0.120700
     70 HAX2        -4.0250    -2.4680    -2.9930 hx         1 DRO       0.120700
     71 HAZ1        -5.7210    -3.7830    -3.3440 hn         1 DRO       0.227800
     72 HAZ2        -6.2110    -2.7650    -4.5250 hn         1 DRO       0.227800
     73 HAZ3        -5.3170    -4.0800    -4.8990 hn         1 DRO       0.227800
@<TRIPOS>BOND
     1     1     2 ar  
     2     1     6 ar  
     3     1    43 1   
     4     2     3 ar  
     5     2    44 1   
     6     3     4 ar  
     7     3    45 1   
     8     4     5 ar  
     9     4    46 1   
    10     5     6 ar  
    11     5    47 1   
    12     6     7 1   
    13     7     8 1   
    14     7    14 1   
    15     8     9 ar  
    16     8    13 ar  
    17     9    10 ar  
    18     9    48 1   
    19    10    11 ar  
    20    10    50 1   
    21    11    12 ar  
    22    11    51 1   
    23    12    13 ar  
    24    12    52 1   
    25    13    49 1   
    26    14    15 2   
    27    14    16 1   
    28    16    17 2   
    29    16    18 1   
    30    17    22 1   
    31    18    19 1   
    32    18    20 2   
    33    20    21 1   
    34    20    22 1   
    35    21    53 1   
    36    21    54 1   
    37    21    55 1   
    38    22    23 1   
    39    23    24 ar  
    40    23    28 ar  
    41    24    25 ar  
    42    24    56 1   
    43    25    26 ar  
    44    25    57 1   
    45    26    27 ar  
    46    26    58 1   
    47    27    28 ar  
    48    27    59 1   
    49    28    29 1   
    50    29    30 2   
    51    29    31 1   
    52    31    32 1   
    53    31    40 1   
    54    32    33 1   
    55    32    60 1   
    56    32    61 1   
    57    33    34 ar  
    58    33    38 ar  
    59    34    35 ar  
    60    34    63 1   
    61    35    36 ar  
    62    35    64 1   
    63    36    37 ar  
    64    36    65 1   
    65    37    38 ar  
    66    37    66 1   
    67    38    39 1   
    68    39    40 1   
    69    39    67 1   
    70    39    68 1   
    71    40    41 1   
    72    40    62 1   
    73    41    42 1   
    74    41    69 1   
    75    41    70 1   
    76    42    71 1   
    77    42    72 1   
    78    42    73 1   
@<TRIPOS>SUBSTRUCTURE
     1 DRO         1 TEMP              0 ****  ****    0 ROOT
