@<TRIPOS>MOLECULE
DRQ
   54    57     1     0     0
SMALL
bcc


@<TRIPOS>ATOM
      1 CAX        -0.1010    0.7340    0.3160 c3        1 DRQ     -0.090100
      2 CAW         1.3180    0.2280    0.2190 c3        1 DRQ     -0.054200
      3 CAV         1.8500   -0.1800    1.5400 c2        1 DRQ     -0.159200
      4 CAU         2.7460   -1.1460    1.7760 ce        1 DRQ     -0.107200
      5 CAC         3.4030   -2.0010    0.8030 ca        1 DRQ     -0.076800
      6 CAD         3.8280   -1.5350   -0.4440 ca        1 DRQ     -0.092000
      7 CAT         4.4790   -2.3600   -1.3690 ca        1 DRQ     -0.099300
      8 CAS         4.8670   -1.8340   -2.7170 c3        1 DRQ     -0.008400
      9 CAR         5.1850   -0.3420   -2.7130 c3        1 DRQ     -0.071400
     10 CAQ         5.6900    0.1860   -4.0480 c3        1 DRQ     -0.063400
     11 CAO         6.8460   -0.6490   -4.5660 c3        1 DRQ     -0.043000
     12 CAP         8.0670   -0.4730   -3.6800 c3        1 DRQ     -0.077100
     13 CAM         7.2540   -0.3870   -6.0380 c3        1 DRQ      0.141100
     14 OAN         8.1920    0.6710   -6.0980 oh        1 DRQ     -0.591800
     15 CAL         7.8460   -1.7280   -6.5260 c3        1 DRQ     -0.117400
     16 CAK         7.3950   -2.8040   -5.5360 c3        1 DRQ     -0.068400
     17 CAJ         6.3520   -2.1120   -4.6670 c3        1 DRQ     -0.066700
     18 CAI         6.0280   -2.6630   -3.2970 c3        1 DRQ     -0.047700
     19 CAH         5.6170   -4.1220   -3.3460 c3        1 DRQ     -0.073400
     20 CAG         5.4130   -4.6560   -1.9450 c3        1 DRQ     -0.037100
     21 CAF         4.7130   -3.7050   -1.0360 ca        1 DRQ     -0.032300
     22 CAE         4.3070   -4.1930    0.2120 ca        1 DRQ     -0.220000
     23 CAA         3.6660   -3.3520    1.1240 ca        1 DRQ      0.131100
     24 OAB         3.2640   -3.7920    2.3660 oh        1 DRQ     -0.496100
     25 HAX1       -0.7740   -0.0580    0.7240 hc        1 DRQ      0.034033
     26 HAX2       -0.1600    1.6250    0.9860 hc        1 DRQ      0.034033
     27 HAX3       -0.4730    1.0280   -0.6960 hc        1 DRQ      0.034033
     28 HAW1        1.3590   -0.6350   -0.5000 hc        1 DRQ      0.048200
     29 HAW2        1.9730    1.0400   -0.2020 hc        1 DRQ      0.048200
     30 HAV         1.4380    0.3850    2.3950 ha        1 DRQ      0.121000
     31 HAU         3.0270   -1.3750    2.8230 ha        1 DRQ      0.136000
     32 HAD         3.6470   -0.4760   -0.6860 ha        1 DRQ      0.140000
     33 HAS         3.9740   -1.9850   -3.3940 hc        1 DRQ      0.053700
     34 HAR1        5.9400   -0.1280   -1.9120 hc        1 DRQ      0.044200
     35 HAR2        4.2530    0.2300   -2.4570 hc        1 DRQ      0.044200
     36 HAQ1        6.0190    1.2510   -3.9230 hc        1 DRQ      0.044700
     37 HAQ2        4.8540    0.1750   -4.7960 hc        1 DRQ      0.044700
     38 HAP1        7.8370   -0.7050   -2.6140 hc        1 DRQ      0.041367
     39 HAP2        8.4210    0.5850   -3.7450 hc        1 DRQ      0.041367
     40 HAP3        8.8920   -1.1410   -4.0250 hc        1 DRQ      0.041367
     41 HAM         6.3480   -0.1130   -6.6450 h1        1 DRQ      0.033700
     42 HOAN        8.4700    0.7350   -7.0200 ho        1 DRQ      0.398000
     43 HAL1        7.4830   -1.9570   -7.5570 hc        1 DRQ      0.047200
     44 HAL2        8.9620   -1.6620   -6.5560 hc        1 DRQ      0.047200
     45 HAK1        8.2550   -3.1630   -4.9180 hc        1 DRQ      0.045200
     46 HAK2        6.9610   -3.6880   -6.0630 hc        1 DRQ      0.045200
     47 HAJ         5.3890   -2.1060   -5.2590 hc        1 DRQ      0.045700
     48 HAI         6.9250   -2.5670   -2.6250 hc        1 DRQ      0.063700
     49 HAH1        6.4110   -4.7210   -3.8650 hc        1 DRQ      0.044700
     50 HAH2        4.6730   -4.2300   -3.9410 hc        1 DRQ      0.044700
     51 HAG1        6.4140   -4.8970   -1.4910 hc        1 DRQ      0.051200
     52 HAG2        4.8330   -5.6170   -1.9950 hc        1 DRQ      0.051200
     53 HAE         4.4970   -5.2440    0.4730 ha        1 DRQ      0.131000
     54 HOAB        3.5120   -4.7250    2.4440 ho        1 DRQ      0.417000
@<TRIPOS>BOND
     1    1    2 1   
     2    1   25 1   
     3    1   26 1   
     4    1   27 1   
     5    2    3 1   
     6    2   28 1   
     7    2   29 1   
     8    3    4 2   
     9    3   30 1   
    10    4    5 1   
    11    4   31 1   
    12    5    6 ar  
    13    5   23 ar  
    14    6    7 ar  
    15    6   32 1   
    16    7    8 1   
    17    7   21 ar  
    18    8    9 1   
    19    8   18 1   
    20    8   33 1   
    21    9   10 1   
    22    9   34 1   
    23    9   35 1   
    24   10   11 1   
    25   10   36 1   
    26   10   37 1   
    27   11   12 1   
    28   11   13 1   
    29   11   17 1   
    30   12   38 1   
    31   12   39 1   
    32   12   40 1   
    33   13   14 1   
    34   13   15 1   
    35   13   41 1   
    36   14   42 1   
    37   15   16 1   
    38   15   43 1   
    39   15   44 1   
    40   16   17 1   
    41   16   45 1   
    42   16   46 1   
    43   17   18 1   
    44   17   47 1   
    45   18   19 1   
    46   18   48 1   
    47   19   20 1   
    48   19   49 1   
    49   19   50 1   
    50   20   21 1   
    51   20   51 1   
    52   20   52 1   
    53   21   22 ar  
    54   22   23 ar  
    55   22   53 1   
    56   23   24 1   
    57   24   54 1   
@<TRIPOS>SUBSTRUCTURE
     1 DRQ         1 TEMP              0 ****  ****    0 ROOT
