@<TRIPOS>MOLECULE
molecule
   54    57     1     0     0
SMALL
bcc


@<TRIPOS>ATOM
      1 CAX          0.0000     0.0000     0.0000 c3         1 DRQ      -0.051100
      2 CAW          1.5300     0.0000     0.0000 c3         1 DRQ      -0.106200
      3 CAV          2.0330     0.0000     1.4210 c2         1 DRQ      -0.395200
      4 CAU          2.9040    -0.9190     1.8160 ce         1 DRQ      -0.202200
      5 CAC          3.4980    -1.8460     0.8300 ca         1 DRQ      -0.202800
      6 CAD          3.8980    -1.3810    -0.4190 ca         1 DRQ      -0.095000
      7 CAT          4.4570    -2.2470    -1.3450 ca         1 DRQ      -0.096300
      8 CAS          4.8570    -1.6900    -2.6810 c3         1 DRQ      -0.021400
      9 CAR          5.3760    -0.2640    -2.5690 c3         1 DRQ      -0.075400
     10 CAQ          5.7810     0.2770    -3.9530 c3         1 DRQ      -0.062400
     11 CAO          6.8150    -0.6660    -4.5310 c3         1 DRQ      -0.066000
     12 CAP          7.9870    -0.8030    -3.5550 c3         1 DRQ      -0.083100
     13 CAM          7.3450    -0.3390    -5.9230 c3         1 DRQ       0.154100
     14 OAN          8.5370     0.4430    -5.8270 oh         1 DRQ      -0.600800
     15 CAL          7.6510    -1.7090    -6.5760 c3         1 DRQ      -0.110400
     16 CAK          7.2000    -2.7910    -5.5580 c3         1 DRQ      -0.073400
     17 CAJ          6.1440    -2.0530    -4.7350 c3         1 DRQ      -0.069700
     18 CAI          5.8850    -2.6110    -3.3500 c3         1 DRQ      -0.060700
     19 CAH          5.2900    -4.0180    -3.4080 c3         1 DRQ      -0.077400
     20 CAG          5.2400    -4.5720    -1.9850 c3         1 DRQ      -0.042100
     21 CAF          4.6260    -3.5810    -1.0310 ca         1 DRQ      -0.013300
     22 CAE          4.2240    -4.0520     0.2130 ca         1 DRQ      -0.199000
     23 CAA          3.6690    -3.1990     1.1480 ca         1 DRQ       0.148100
     24 OAB          3.2870    -3.6700     2.3630 oh         1 DRQ      -0.501100
     25 HAX1        -0.3610    -0.9400     0.4000 hc         1 DRQ       0.045700
     26 HAX2        -0.3610     0.1240    -1.0140 hc         1 DRQ       0.045700
     27 HAX3        -0.3610     0.8160     0.6140 hc         1 DRQ       0.045700
     28 HAW1         1.8910     0.8850    -0.5110 hc         1 DRQ       0.028700
     29 HAW2         1.8910    -0.8840    -0.5110 hc         1 DRQ       0.028700
     30 HAV          2.5980     0.4700     0.6250 ha         1 DRQ       0.305000
     31 HAU          2.3860    -1.8190     1.5070 ha         1 DRQ       0.323000
     32 HAD          3.7750    -0.3340    -0.6670 ha         1 DRQ       0.137000
     33 HAS          3.9730    -1.6710    -3.3080 hc         1 DRQ       0.057700
     34 HAR1         4.5980     0.3660    -2.1550 hc         1 DRQ       0.047700
     35 HAR2         6.2390    -0.2500    -1.9150 hc         1 DRQ       0.047700
     36 HAQ1         6.2060     1.2680    -3.8490 hc         1 DRQ       0.046700
     37 HAQ2         4.9130     0.3100    -4.6020 hc         1 DRQ       0.046700
     38 HAP1         7.6060    -0.9540    -2.5530 hc         1 DRQ       0.044367
     39 HAP2         8.5860     0.1000    -3.5820 hc         1 DRQ       0.044367
     40 HAP3         8.5980    -1.6500    -3.8410 hc         1 DRQ       0.044367
     41 HAM          6.5900     0.1870    -6.4950 h1         1 DRQ       0.034700
     42 HOAN         8.6290     0.9730    -6.6020 ho         1 DRQ       0.399000
     43 HAL1         7.0920    -1.8120    -7.4990 hc         1 DRQ       0.051200
     44 HAL2         8.7130    -1.7990    -6.7670 hc         1 DRQ       0.051200
     45 HAK1         6.7630    -3.6400    -6.0690 hc         1 DRQ       0.049200
     46 HAK2         8.0300    -3.0960    -4.9310 hc         1 DRQ       0.049200
     47 HAJ          5.2200    -1.9530    -5.2920 hc         1 DRQ       0.057700
     48 HAI          6.8040    -2.6200    -2.7760 hc         1 DRQ       0.070700
     49 HAH1         5.9310    -4.6490    -4.0110 hc         1 DRQ       0.051200
     50 HAH2         4.2810    -3.9580    -3.7990 hc         1 DRQ       0.051200
     51 HAG1         4.6300    -5.4680    -1.9880 hc         1 DRQ       0.059700
     52 HAG2         6.2540    -4.7760    -1.6610 hc         1 DRQ       0.059700
     53 HAE          4.3570    -5.1000     0.4570 ha         1 DRQ       0.143000
     54 HOAB         4.0340    -4.0330     2.8090 ho         1 DRQ       0.435000
@<TRIPOS>BOND
     1     1     2 1
     2     1    25 1
     3     1    26 1
     4     1    27 1
     5     2     3 1
     6     2    28 1
     7     2    29 1
     8     3     4 2
     9     3    30 1
    10     4     5 1
    11     4    31 1
    12     5     6 ar
    13     5    23 ar
    14     6     7 ar
    15     6    32 1
    16     7     8 1
    17     7    21 ar
    18     8     9 1
    19     8    18 1
    20     8    33 1
    21     9    10 1
    22     9    34 1
    23     9    35 1
    24    10    11 1
    25    10    36 1
    26    10    37 1
    27    11    12 1
    28    11    13 1
    29    11    17 1
    30    12    38 1
    31    12    39 1
    32    12    40 1
    33    13    14 1
    34    13    15 1
    35    13    41 1
    36    14    42 1
    37    15    16 1
    38    15    43 1
    39    15    44 1
    40    16    17 1
    41    16    45 1
    42    16    46 1
    43    17    18 1
    44    17    47 1
    45    18    19 1
    46    18    48 1
    47    19    20 1
    48    19    49 1
    49    19    50 1
    50    20    21 1
    51    20    51 1
    52    20    52 1
    53    21    22 ar
    54    22    23 ar
    55    22    53 1
    56    23    24 1
    57    24    54 1
@<TRIPOS>SUBSTRUCTURE
     1 DRQ         1 TEMP              0 ****  ****    0 ROOT
