@<TRIPOS>MOLECULE
molecule
   51    52     1     0     0
SMALL
bcc


@<TRIPOS>ATOM
      1 CAA          0.0000     0.0000     0.0000 c3         1 DRS      -0.090600
      2 CAX          1.5290     0.0000     0.0000 c3         1 DRS      -0.083700
      3 CAB          2.0390     1.2490    -0.7220 c3         1 DRS      -0.090600
      4 CAZ          2.0400     0.0000     1.4430 c3         1 DRS       0.033700
      5 CAU          1.4290    -1.1540     2.1930 c          1 DRS       0.644100
      6 OAE          1.1230    -2.1760     1.6160 o          1 DRS      -0.609100
      7 N            1.2280    -1.0240     3.5420 ns         1 DRS      -0.539900
      8 CA           0.6020    -2.2070     4.1870 c3         1 DRS      -0.012300
      9 C           -0.8890    -2.0050     4.2780 c          1 DRS       0.881600
     10 O           -1.3540    -0.8930     4.2030 o          1 DRS      -0.839300
     11 OXT         -1.7010    -3.0620     4.4420 o          1 DRS      -0.839300
     12 CB           1.1890    -2.3530     5.5930 c3         1 DRS      -0.033100
     13 CG           2.4920    -1.5990     5.6680 ca         1 DRS      -0.045300
     14 CD2          2.4860    -0.2240     5.8100 ca         1 DRS      -0.116500
     15 CE2          3.6790     0.4710     5.8710 ca         1 DRS      -0.158000
     16 CD1          3.6900    -2.2830     5.5920 ca         1 DRS      -0.116500
     17 CE1          4.8860    -1.5940     5.6530 ca         1 DRS      -0.158000
     18 CZ           4.8830    -0.2130     5.7900 ca         1 DRS       0.085100
     19 OH           6.0580     0.4680     5.8400 os         1 DRS      -0.355900
     20 CAM          6.2960     1.4290     4.8090 c3         1 DRS       0.145400
     21 CAK          6.5400     0.7050     3.4830 c3         1 DRS      -0.124400
     22 CAL          6.2940     1.6710     2.3220 c3         1 DRS      -0.071400
     23 CAN          5.7300     0.8980     1.1280 c3         1 DRS      -0.155400
     24 CAS          4.2250     0.9700     1.1470 c          1 DRS       0.650100
     25 OAC          3.6570     2.0130     0.8980 o          1 DRS      -0.613100
     26 NAP          3.5100    -0.1500     1.4470 ns         1 DRS      -0.556900
     27 HAA         -0.3610    -0.9910     0.2460 hc         1 DRS       0.039533
     28 HAAA        -0.3610     0.2830    -0.9810 hc         1 DRS       0.039533
     29 HAAB        -0.3610     0.7080     0.7360 hc         1 DRS       0.039533
     30 HAX          1.8900    -0.8850    -0.5110 hc         1 DRS       0.054700
     31 HAB          1.9360     2.1090    -0.0720 hc         1 DRS       0.039533
     32 HABA         3.0830     1.1150    -0.9810 hc         1 DRS       0.039533
     33 HABB         1.4600     1.4060    -1.6240 hc         1 DRS       0.039533
     34 HAZ          1.7680     0.9310     1.9250 h1         1 DRS       0.086700
     35 HN           1.1170    -0.1160     3.9470 hn         1 DRS       0.321500
     36 HA           0.8160    -3.0960     3.6070 h1         1 DRS       0.090700
     37 HB           0.4940    -1.9490     6.3200 hc         1 DRS       0.056200
     38 HBA          1.3640    -3.4010     5.8050 hc         1 DRS       0.056200
     39 HD2          1.5450     0.3090     5.8730 ha         1 DRS       0.137500
     40 HE2          3.6730     1.5440     6.0160 ha         1 DRS       0.126000
     41 HD1          3.6920    -3.3620     5.4880 ha         1 DRS       0.137500
     42 HE1          5.8240    -2.1340     5.6250 ha         1 DRS       0.126000
     43 HAM          5.4330     2.0760     4.7130 h1         1 DRS       0.047200
     44 HAMA         7.1660     2.0220     5.0620 h1         1 DRS       0.047200
     45 HAK          5.8640    -0.1380     3.4010 hc         1 DRS       0.055200
     46 HAKA         7.5640     0.3510     3.4480 hc         1 DRS       0.055200
     47 HAL          5.5850     2.4300     2.6280 hc         1 DRS       0.050200
     48 HALA         7.2280     2.1410     2.0390 hc         1 DRS       0.050200
     49 HAN          6.0420    -0.1370     1.1880 hc         1 DRS       0.056200
     50 HANA         6.1010     1.3340     0.2080 hc         1 DRS       0.056200
     51 HNAP         3.9210    -1.0540     1.3220 hn         1 DRS       0.321500
@<TRIPOS>BOND
     1     1     2 1
     2     2     3 1
     3     2     4 1
     4     4     5 1
     5     4    26 1
     6     5     6 2
     7     5     7 1
     8     7     8 1
     9     8     9 1
    10     8    12 1
    11     9    10 1
    12     9    11 1
    13    12    13 1
    14    13    14 ar
    15    13    16 ar
    16    14    15 ar
    17    15    18 ar
    18    16    17 ar
    19    17    18 ar
    20    18    19 1
    21    19    20 1
    22    20    21 1
    23    21    22 1
    24    22    23 1
    25    23    24 1
    26    24    25 2
    27    24    26 1
    28     1    27 1
    29     1    28 1
    30     1    29 1
    31     2    30 1
    32     3    31 1
    33     3    32 1
    34     3    33 1
    35     4    34 1
    36     7    35 1
    37     8    36 1
    38    12    37 1
    39    12    38 1
    40    14    39 1
    41    15    40 1
    42    16    41 1
    43    17    42 1
    44    20    43 1
    45    20    44 1
    46    21    45 1
    47    21    46 1
    48    22    47 1
    49    22    48 1
    50    23    49 1
    51    23    50 1
    52    26    51 1
@<TRIPOS>SUBSTRUCTURE
     1 DRS         1 TEMP              0 ****  ****    0 ROOT
