@<TRIPOS>MOLECULE
molecule
   45    47     1     0     0
SMALL
bcc


@<TRIPOS>ATOM
      1 C4           0.0000     0.0000     0.0000 ca         1 DRV       0.448800
      2 C5           1.4050     0.0000     0.0000 ca         1 DRV      -0.160200
      3 C6           2.0690     0.0000     1.2390 ca         1 DRV       0.784200
      4 C8           0.7590    -0.0090    -2.0700 cc         1 DRV       0.427700
      5 N1           1.3370    -0.0010     2.3490 nb         1 DRV      -0.765000
      6 N3          -0.6450     0.0000     1.1620 nb         1 DRV      -0.755000
      7 N           -1.3140     1.3240   -10.6190 nz         1 DRV      -0.797600
      8 CA          -2.5890     0.8990   -10.0250 c3         1 DRV       0.008800
      9 C           -2.3250    -0.1090    -8.9370 c          1 DRV       0.669100
     10 O           -1.1880    -0.4420    -8.6820 o          1 DRV      -0.530100
     11 NAO         -3.3570    -0.6540    -8.2590 ns         1 DRV      -0.654300
     12 SBA         -3.0680    -1.7760    -7.0770 s6         1 DRV       1.639100
     13 OAD         -4.3350    -2.1240    -6.5370 o          1 DRV      -0.591800
     14 OAE         -2.1730    -2.7270    -7.6360 o          1 DRV      -0.591800
     15 O5'         -2.3050    -1.0720    -5.9630 os         1 DRV      -0.527500
     16 C5'         -3.1150    -0.2110    -5.1600 c3         1 DRV       0.154400
     17 C4'         -2.2480     0.4400    -4.0780 c3         1 DRV       0.139100
     18 O4'         -1.7800    -0.5520    -3.1510 os         1 DRV      -0.385600
     19 C3'         -3.0950     1.4200    -3.2290 c3         1 DRV       0.078100
     20 O3'         -3.1350     2.7180    -3.8270 oh         1 DRV      -0.602800
     21 C2'         -2.2840     1.4390    -1.9040 c3         1 DRV       0.088100
     22 O2'         -3.1340     1.7290    -0.7930 oh         1 DRV      -0.572800
     23 C1'         -1.7520    -0.0080    -1.8260 c3         1 DRV       0.261800
     24 N9          -0.3780    -0.0060    -1.3180 na         1 DRV      -0.277000
     25 N7           1.8040     0.0000    -1.2940 nd         1 DRV      -0.565100
     26 C2           0.0180    -0.0020     2.2980 ca         1 DRV       0.713900
     27 N6           3.4510    -0.0000     1.3020 nv         1 DRV      -1.072500
     28 H8           0.7890    -0.0170    -3.1530 h5         1 DRV       0.080800
     29 HN          -0.8400     0.5280   -10.9970 hn         1 DRV       0.471467
     30 HNA         -0.7430     1.7480    -9.9140 hn         1 DRV       0.471467
     31 HA          -3.2110     0.4510   -10.7900 hx         1 DRV       0.132200
     32 HAA         -3.0960     1.7600    -9.6050 hx         1 DRV       0.132200
     33 HNAO        -4.2970    -0.4150    -8.5040 hn         1 DRV       0.357500
     34 H5'         -3.5530     0.5590    -5.7840 h1         1 DRV       0.070200
     35 H5'A        -3.9030    -0.7880    -4.6920 h1         1 DRV       0.070200
     36 H4'         -1.4090     0.9610    -4.5240 h1         1 DRV       0.078700
     37 H3'         -4.0910     1.0280    -3.0660 h1         1 DRV       0.076700
     38 HO3'        -3.9860     3.1010    -3.6900 ho         1 DRV       0.422000
     39 H2'         -1.4650     2.1450    -1.9670 h1         1 DRV       0.081700
     40 HO2'        -3.1130     2.6550    -0.6150 ho         1 DRV       0.422000
     41 H1'         -2.3880    -0.5970    -1.1760 h2         1 DRV       0.129700
     42 H2          -0.5400    -0.0030     3.2270 h5         1 DRV       0.069100
     43 HN6          3.9510    -0.8670     1.3250 hn         1 DRV       0.448300
     44 HN6A         3.9490     0.8660     1.3580 hn         1 DRV       0.448300
     45 HN3         -1.4900     1.9860   -11.3490 hn         1 DRV       0.471467
@<TRIPOS>BOND
     1     1     2 ar
     2     1     6 ar
     3     1    24 1
     4     2     3 ar
     5     2    25 1
     6     3     5 ar
     7     3    27 1
     8     4    24 1
     9     4    25 2
    10     5    26 ar
    11     6    26 ar
    12     7     8 1
    13     8     9 1
    14     9    10 2
    15     9    11 1
    16    11    12 1
    17    12    13 2
    18    12    14 2
    19    12    15 1
    20    15    16 1
    21    16    17 1
    22    17    18 1
    23    17    19 1
    24    18    23 1
    25    19    20 1
    26    19    21 1
    27    21    22 1
    28    21    23 1
    29    23    24 1
    30     4    28 1
    31     7    29 1
    32     7    30 1
    33     8    31 1
    34     8    32 1
    35    11    33 1
    36    16    34 1
    37    16    35 1
    38    17    36 1
    39    19    37 1
    40    20    38 1
    41    21    39 1
    42    22    40 1
    43    23    41 1
    44    26    42 1
    45    27    43 1
    46    27    44 1
    47    45     7 1
@<TRIPOS>SUBSTRUCTURE
     1 DRV         1 TEMP              0 ****  ****    0 ROOT
