@<TRIPOS>MOLECULE
DRW
   54    54     1     0     0
SMALL
bcc


@<TRIPOS>ATOM
      1 CAA         0.7400    1.9850    1.6260 cy        1 DRW      0.047100
      2 CAB         4.7040   -0.9760    4.0950 c3        1 DRW     -0.097900
      3 NAC         0.2450    8.1870    9.8860 n3        1 DRW     -1.078400
      4 OAD         4.1290    2.8970    1.1530 o         1 DRW     -0.537100
      5 OAE         1.8600    3.3870    4.6820 os        1 DRW     -0.228900
      6 OAF         0.3080    7.8490    7.0290 o         1 DRW     -0.672300
      7 OAG         1.5700    9.6270    7.8840 o         1 DRW     -0.672300
      8 OAH         0.8850    2.8500    2.7760 os        1 DRW     -0.280900
      9 OAI         1.6310    3.9990    0.4130 oh        1 DRW     -0.541800
     10 CAJ         3.7910    2.0680    0.3060 c         1 DRW      0.595900
     11 CAK        -1.1890    5.2040    6.0370 cx        1 DRW      0.042700
     12 CAM         0.9610    4.5760    4.7790 c3        1 DRW      0.180100
     13 NAN         2.7060    0.5990    2.5590 n2        1 DRW     -0.339200
     14 NAO         1.9100    5.3490    6.9430 n3        1 DRW     -0.918800
     15 SAQ        -1.8660    4.2410    4.6900 ss        1 DRW     -0.354200
     16 CAS         2.7100    1.3490    3.6150 ce        1 DRW      0.155000
     17 CAT         1.2610    2.6680    0.3160 cy        1 DRW      0.163100
     18 CAU         4.4050    0.1430    4.9990 c2        1 DRW     -0.006200
     19 CAV         1.8230    5.6090    5.5320 c3        1 DRW      0.162800
     20 CAW        -0.2760    4.1460    5.5080 cx        1 DRW     -0.032600
     21 CAX         2.3780    1.5780    0.2020 cy        1 DRW     -0.238700
     22 CAY         1.8110    0.8560    1.4770 cy        1 DRW      0.113500
     23 CAZ         3.5390    1.1520    4.7950 ce        1 DRW     -0.225000
     24 SBA         0.3280    9.1740    7.4800 s6        1 DRW      1.547900
     25 HAA        -0.3330    1.6740    1.6330 h1        1 DRW      0.140700
     26 HAAA       -0.8630   -0.4310    1.1970 ha        1 DRW      0.000500
     27 HAAB       -1.3510   -0.8890    1.0930 ha        1 DRW      0.000500
     28 HAB         5.1290   -0.6000    3.1280 hc        1 DRW      0.071700
     29 HABA        5.4480   -1.6740    4.5550 hc        1 DRW      0.071700
     30 HABB        3.7770   -1.5590    3.8580 hc        1 DRW      0.071700
     31 HNAC       -0.5240    8.5290   10.4260 hn        1 DRW      0.369133
     32 HNAA        0.2330    7.1880    9.8910 hn        1 DRW      0.369133
     33 HOAI        2.3570    4.0860    1.0500 ho        1 DRW      0.424000
     34 HAJ         4.5080    1.6410   -0.4280 h4        1 DRW      0.048200
     35 HAK        -0.9280    6.2670    5.8650 h1        1 DRW      0.120700
     36 HAKA       -1.6170    5.0530    7.0450 h1        1 DRW      0.120700
     37 HAL         1.3440    6.6080    5.2940 h1        1 DRW      0.073200
     38 HALA       -2.1030    9.3850    8.0970 h2        1 DRW      0.103700
     39 HAM         2.8560    5.5930    5.0800 h1        1 DRW      0.073200
     40 HAMA        0.7470    4.9360    3.7350 h1        1 DRW      0.106700
     41 HNAO        1.0940    5.6980    7.4120 hn        1 DRW      0.377800
     42 HNAP       -1.1460   10.7510    8.7550 h2        1 DRW      0.103700
     43 HAT         0.5060    2.6220   -0.5130 h1        1 DRW      0.130700
     44 HAU         4.9670    0.1410    5.9550 ha        1 DRW      0.150000
     45 HAV         2.7260    5.7810    7.3290 hn        1 DRW      0.377800
     46 HAW        -0.0890    3.2760    6.1740 h1        1 DRW      0.129700
     47 HAX         2.2530    0.9450   -0.7100 hc        1 DRW      0.115700
     48 HAY         1.3350   -0.1300    1.2060 h1        1 DRW      0.140700
     49 HAZ         3.4210    1.9310    5.5720 ha        1 DRW      0.167000
     50 CAR         1.7940    2.5460    3.6930 c2        1 DRW      0.424200
     51 CAL        -1.1230    9.9070    8.0310 cx        1 DRW      0.018600
     52 NAP        -0.6180   10.1790    6.7180 n3        1 DRW     -0.936100
     53 HAC3        1.1030    8.5100   10.2880 hn        1 DRW      0.369133
     54 HAP2       -0.9150   10.8050    6.0370 hn        1 DRW      0.480800
@<TRIPOS>BOND
     1    1    8 1   
     2    1   17 1   
     3    1   22 1   
     4    1   25 1   
     5    2   18 1   
     6    2   28 1   
     7    2   29 1   
     8    2   30 1   
     9    3   31 1   
    10    3   32 1   
    11    3   53 1   
    12    4   10 2   
    13    5   12 1   
    14    5   50 1   
    15    6   24 2   
    16    7   24 2   
    17    8   50 1   
    18    9   17 1   
    19    9   33 1   
    20   10   21 1   
    21   10   34 1   
    22   11   15 1   
    23   11   20 1   
    24   11   35 1   
    25   11   36 1   
    26   12   19 1   
    27   12   20 1   
    28   12   40 1   
    29   13   16 1   
    30   13   22 1   
    31   14   19 1   
    32   14   41 1   
    33   14   45 1   
    34   15   20 1   
    35   16   23 1   
    36   16   50 2   
    37   17   21 1   
    38   17   43 1   
    39   18   23 2   
    40   18   44 1   
    41   19   37 1   
    42   19   39 1   
    43   20   46 1   
    44   21   22 1   
    45   21   47 1   
    46   22   48 1   
    47   23   49 1   
    48   24   51 1   
    49   24   52 1   
    50   26   27 1   
    51   38   51 1   
    52   42   51 1   
    53   51   52 1   
    54   52   54 1   
@<TRIPOS>SUBSTRUCTURE
     1 DRW         1 TEMP              0 ****  ****    0 ROOT
