@<TRIPOS>MOLECULE
molecule
   41    44     1     0     0
SMALL
bcc


@<TRIPOS>ATOM
      1 CAO          0.0000     0.0000     0.0000 ca         1 DRX      -0.017800
      2 CAP          1.4160     0.0000     0.0000 ca         1 DRX      -0.046000
      3 CAQ          2.1220     0.0000     1.2060 ca         1 DRX      -0.004600
      4 ClR          3.8440     0.0020     1.1890 cl         1 DRX      -0.155400
      5 CBB          1.4430     0.0010     2.4160 ca         1 DRX      -0.148000
      6 CBA          0.0480     0.0020     2.4480 ca         1 DRX      -0.109000
      7 CAZ         -0.6620     0.0010     1.2310 ca         1 DRX      -0.048100
      8 SBC         -2.3740     0.0010     1.0250 ss         1 DRX      -0.136500
      9 CAY         -2.2430    -0.0000    -0.6760 cc         1 DRX      -0.090400
     10 CAN         -0.9370    -0.0000    -1.0760 cd         1 DRX      -0.006400
     11 CAM         -0.5380    -0.0030    -2.5220 c3         1 DRX      -0.188700
     12 PAD         -1.0930     1.5680    -3.2400 p5         1 DRX       1.019700
     13 OAB         -0.4630     1.5070    -4.7190 o          1 DRX      -0.884167
     14 OAE         -2.5630     1.7690    -3.1540 o          1 DRX      -0.884167
     15 OAC         -0.1760     2.6380    -2.4660 o          1 DRX      -0.884167
     16 CAL         -1.0850    -1.2220    -3.2480 c          1 DRX       0.721100
     17 OAX         -2.2030    -1.2070    -3.7530 o          1 DRX      -0.554100
     18 NAK         -0.1750    -2.2890    -3.2530 ns         1 DRX      -0.483100
     19 CAW         -0.3330    -3.5550    -3.8200 ca         1 DRX       0.131600
     20 CAV          0.6910    -4.4970    -3.7170 ca         1 DRX      -0.243000
     21 CAU          0.5470    -5.7750    -4.2800 ca         1 DRX       0.014000
     22 CAT          1.5670    -6.7360    -4.1860 ca         1 DRX      -0.135000
     23 CAS          1.4070    -8.0010    -4.7530 ca         1 DRX      -0.140000
     24 CAF          0.2290    -8.3220    -5.4200 ca         1 DRX      -0.176000
     25 CAG         -0.7940    -7.3800    -5.5240 ca         1 DRX      -0.103000
     26 CAH         -0.6510    -6.1020    -4.9600 ca         1 DRX      -0.077000
     27 CAI         -1.6700    -5.1410    -5.0540 ca         1 DRX      -0.116000
     28 CAJ         -1.5110    -3.8750    -4.4880 ca         1 DRX      -0.140000
     29 HAP          1.9550     0.0010    -0.9400 ha         1 DRX       0.160000
     30 HBB          2.0010     0.0010     3.3450 ha         1 DRX       0.113000
     31 HBA         -0.4810     0.0020     3.3940 ha         1 DRX       0.116000
     32 HAY         -3.0890    -0.0020    -1.3530 h4         1 DRX       0.221000
     33 HAM          0.5430    -0.0360    -2.5750 hc         1 DRX       0.071700
     34 HNAK         0.6980    -2.1220    -2.7930 hn         1 DRX       0.317500
     35 HAV          1.6060    -4.2400    -3.1960 ha         1 DRX       0.127000
     36 HAT          2.4870    -6.4930    -3.6680 ha         1 DRX       0.121000
     37 HAS          2.2010    -8.7350    -4.6730 ha         1 DRX       0.108000
     38 HAF          0.1060    -9.3050    -5.8600 ha         1 DRX       0.107000
     39 HAG         -1.7080    -7.6370    -6.0450 ha         1 DRX       0.114000
     40 HAI         -2.5890    -5.3830    -5.5730 ha         1 DRX       0.120000
     41 HAJ         -2.2990    -3.1380    -4.5790 ha         1 DRX       0.190000
@<TRIPOS>BOND
     1     1    10 1
     2     1     7 ar
     3     1     2 ar
     4     2     3 ar
     5     2    29 1
     6     3     5 ar
     7     3     4 1
     8     5     6 ar
     9     5    30 1
    10     6     7 ar
    11     6    31 1
    12     7     8 1
    13     8     9 1
    14     9    10 2
    15     9    32 1
    16    10    11 1
    17    11    16 1
    18    11    12 1
    19    11    33 1
    20    12    14 1
    21    12    13 1
    22    12    15 1
    23    16    17 2
    24    16    18 1
    25    18    19 1
    26    18    34 1
    27    19    28 ar
    28    19    20 ar
    29    20    21 ar
    30    20    35 1
    31    21    26 ar
    32    21    22 ar
    33    22    23 ar
    34    22    36 1
    35    23    24 ar
    36    23    37 1
    37    24    25 ar
    38    24    38 1
    39    25    26 ar
    40    25    39 1
    41    26    27 ar
    42    27    28 ar
    43    27    40 1
    44    28    41 1
@<TRIPOS>SUBSTRUCTURE
     1 DRX         1 TEMP              0 ****  ****    0 ROOT
