@<TRIPOS>MOLECULE
DRY
   69    73     1     0     0
SMALL
bcc


@<TRIPOS>ATOM
      1 CAO        -0.5870   -0.2280    0.0120 ca        1 DRY     -0.086000
      2 CAR         0.1310   -1.3120   -0.4910 ca        1 DRY     -0.144000
      3 CAQ         0.6740   -2.2550    0.3810 ca        1 DRY     -0.108000
      4 CAP         0.4980   -2.1150    1.7580 ca        1 DRY     -0.144000
      5 CAS        -0.2280   -1.0380    2.2650 ca        1 DRY     -0.086000
      6 CAT        -0.7780   -0.0910    1.3930 ca        1 DRY     -0.164600
      7 CAU        -1.5300    1.0780    1.9030 c         1 DRY      0.591300
      8 OBH        -1.4670    2.1750    1.3280 o         1 DRY     -0.539100
      9 CAV        -2.3510    0.8950    3.1190 ca        1 DRY     -0.182600
     10 CBA        -2.5570    1.9620    3.9690 ca        1 DRY     -0.046000
     11 CAW        -2.9550   -0.3560    3.4100 ca        1 DRY     -0.100000
     12 CAZ        -3.7270   -0.5150    4.5320 ca        1 DRY     -0.130000
     13 CAY        -3.9430    0.5640    5.4390 ca        1 DRY      0.016000
     14 CBD        -4.7390    0.4200    6.6120 ca        1 DRY     -0.097300
     15 CBE        -5.4160   -0.8660    6.9370 c3        1 DRY     -0.033100
     16 CBF        -4.4800   -1.8560    7.6070 c3        1 DRY     -0.075400
     17 CBG        -5.1990   -3.1340    7.9560 c3        1 DRY     -0.098100
     18 CAX        -3.3410    1.8160    5.1440 ca        1 DRY     -0.081000
     19 CBB        -3.5290    2.9110    6.0290 ca        1 DRY     -0.087000
     20 CBC        -4.2800    2.7700    7.1670 ca        1 DRY     -0.180000
     21 CAE        -4.8820    1.5180    7.4600 ca        1 DRY      0.131100
     22 OAD        -5.6000    1.3000    8.6190 os        1 DRY     -0.325900
     23 CAC        -6.1770    2.4600    9.2370 c3        1 DRY      0.130400
     24 CAB        -7.2050    1.9370   10.2230 c3        1 DRY     -0.119400
     25 CAA        -8.4370    1.4090    9.4820 c3        1 DRY      0.042300
     26 NAM        -9.3850    0.6850   10.2720 na        1 DRY     -0.072400
     27 CAN       -10.2600    1.3030   11.1920 cc        1 DRY     -0.136100
     28 CAF       -10.6860    0.3940   12.1470 cd        1 DRY     -0.180200
     29 CAG        -9.9940   -0.8570   11.8940 ca        1 DRY     -0.053800
     30 CAL       -10.0170   -2.1020   12.5160 ca        1 DRY     -0.188000
     31 CAH        -9.1540   -0.6310   10.7450 ca        1 DRY     -0.107200
     32 CAK        -8.3410   -1.6550   10.2410 ca        1 DRY     -0.117000
     33 CAJ        -8.3650   -2.8840   10.8750 ca        1 DRY     -0.151000
     34 CAI        -9.1960   -3.1130   12.0050 ca        1 DRY      0.144100
     35 OBI        -9.1080   -4.3810   12.5180 os        1 DRY     -0.290900
     36 CBJ        -9.9110   -4.6560   13.6710 c3        1 DRY     -0.009600
     37 CBK        -9.6230   -6.1300   14.0870 c         1 DRY      0.925600
     38 OBM       -10.4010   -7.0110   13.6390 o         1 DRY     -0.821800
     39 OBL        -8.6740   -6.3230   14.8920 o         1 DRY     -0.821800
     40 HBJ1       -9.6250   -3.9590   14.4990 h1        1 DRY      0.020200
     41 HBJ2      -10.9910   -4.5320   13.4080 h1        1 DRY      0.020200
     42 HAJ        -7.7370   -3.7130   10.5170 ha        1 DRY      0.146000
     43 HAK        -7.6950   -1.4860    9.3680 ha        1 DRY      0.122000
     44 HAN       -10.5480    2.3450   11.0510 h4        1 DRY      0.147000
     45 HAF       -11.4110    0.5620   12.9370 ha        1 DRY      0.148000
     46 HAL       -10.6660   -2.2770   13.3830 ha        1 DRY      0.148000
     47 HAA1       -8.0800    0.7190    8.6610 h1        1 DRY      0.055200
     48 HAA2       -8.9750    2.2790    9.0070 h1        1 DRY      0.055200
     49 HAB1       -7.4920    2.7680   10.9160 hc        1 DRY      0.070700
     50 HAB2       -6.7470    1.1150   10.8350 hc        1 DRY      0.070700
     51 HAC1       -6.6460    3.1190    8.4610 h1        1 DRY      0.037700
     52 HAC2       -5.3660    3.0210    9.7710 h1        1 DRY      0.037700
     53 HBC        -4.4140    3.6150    7.8560 ha        1 DRY      0.139000
     54 HBB        -3.0560    3.8750    5.7860 ha        1 DRY      0.134000
     55 HBA        -2.1110    2.9440    3.7400 ha        1 DRY      0.147000
     56 HAW        -2.7990   -1.1980    2.7160 ha        1 DRY      0.141000
     57 HAZ        -4.1870   -1.4920    4.7480 ha        1 DRY      0.146000
     58 HBE1       -5.8430   -1.3190    6.0020 hc        1 DRY      0.056200
     59 HBE2       -6.2840   -0.6670    7.6260 hc        1 DRY      0.056200
     60 HBF1       -4.0600   -1.3930    8.5380 hc        1 DRY      0.042200
     61 HBF2       -3.6180   -2.0770    6.9240 hc        1 DRY      0.042200
     62 HBG1       -5.6220   -3.6140    7.0410 hc        1 DRY      0.038700
     63 HBG2       -6.0390   -2.9350    8.6670 hc        1 DRY      0.038700
     64 HBG3       -4.4950   -3.8530    8.4390 hc        1 DRY      0.038700
     65 HAS        -0.3680   -0.9280    3.3520 ha        1 DRY      0.147500
     66 HAP         0.9320   -2.8540    2.4470 ha        1 DRY      0.135500
     67 HAQ         1.2430   -3.1090   -0.0160 ha        1 DRY      0.132000
     68 HAR         0.2720   -1.4190   -1.5760 ha        1 DRY      0.135500
     69 HAO        -1.0040    0.5320   -0.6670 ha        1 DRY      0.147500
@<TRIPOS>BOND
     1    1    2 ar  
     2    1    6 ar  
     3    1   69 1   
     4    2    3 ar  
     5    2   68 1   
     6    3    4 ar  
     7    3   67 1   
     8    4    5 ar  
     9    4   66 1   
    10    5    6 ar  
    11    5   65 1   
    12    6    7 1   
    13    7    8 2   
    14    7    9 1   
    15    9   10 ar  
    16    9   11 ar  
    17   10   18 ar  
    18   10   55 1   
    19   11   12 ar  
    20   11   56 1   
    21   12   13 ar  
    22   12   57 1   
    23   13   14 ar  
    24   13   18 ar  
    25   14   15 1   
    26   14   21 ar  
    27   15   16 1   
    28   15   58 1   
    29   15   59 1   
    30   16   17 1   
    31   16   60 1   
    32   16   61 1   
    33   17   62 1   
    34   17   63 1   
    35   17   64 1   
    36   18   19 ar  
    37   19   20 ar  
    38   19   54 1   
    39   20   21 ar  
    40   20   53 1   
    41   21   22 1   
    42   22   23 1   
    43   23   24 1   
    44   23   51 1   
    45   23   52 1   
    46   24   25 1   
    47   24   49 1   
    48   24   50 1   
    49   25   26 1   
    50   25   47 1   
    51   25   48 1   
    52   26   27 1   
    53   26   31 1   
    54   27   28 2   
    55   27   44 1   
    56   28   29 1   
    57   28   45 1   
    58   29   30 ar  
    59   29   31 ar  
    60   30   34 ar  
    61   30   46 1   
    62   31   32 ar  
    63   32   33 ar  
    64   32   43 1   
    65   33   34 ar  
    66   33   42 1   
    67   34   35 1   
    68   35   36 1   
    69   36   37 1   
    70   36   40 1   
    71   36   41 1   
    72   37   38 1   
    73   37   39 1   
@<TRIPOS>SUBSTRUCTURE
     1 DRY         1 TEMP              0 ****  ****    0 ROOT
