@<TRIPOS>MOLECULE
molecule
   69    73     1     0     0
SMALL
bcc


@<TRIPOS>ATOM
      1 CAO          0.0000     0.0000     0.0000 ca         1 DRY      -0.079500
      2 CAR          1.3940     0.0000     0.0000 ca         1 DRY      -0.145000
      3 CAQ          2.0910     0.0000     1.2080 ca         1 DRY      -0.107000
      4 CAP          1.3940    -0.0010     2.4160 ca         1 DRY      -0.145000
      5 CAS         -0.0010    -0.0010     2.4150 ca         1 DRY      -0.079500
      6 CAT         -0.6580    -0.0010     1.2070 ca         1 DRY      -0.165600
      7 CAU         -2.1530    -0.0020     1.2060 c          1 DRY       0.578300
      8 OBH         -2.7210    -0.0010     0.1060 o          1 DRY      -0.527100
      9 CAV         -2.9320    -0.0020     2.4340 ca         1 DRY      -0.149600
     10 CBA         -3.3060     1.2060     3.0240 ca         1 DRY      -0.083000
     11 CAW         -3.3040    -1.2080     3.0210 ca         1 DRY      -0.104000
     12 CAZ         -4.0520    -1.2110     4.1990 ca         1 DRY      -0.114000
     13 CAY         -4.4360    -0.0040     4.8070 ca         1 DRY      -0.007000
     14 CBD         -5.1890     0.0120     5.9930 ca         1 DRY      -0.079300
     15 CBE         -5.6130    -1.2600     6.6620 c3         1 DRY      -0.038100
     16 CBF         -4.5730    -1.7430     7.6790 c3         1 DRY      -0.077400
     17 CBG         -5.0200    -3.0160     8.3810 c3         1 DRY      -0.093100
     18 CAX         -4.0580     1.2220     4.2100 ca         1 DRY      -0.047000
     19 CBB         -4.4430     2.4290     4.8170 ca         1 DRY      -0.109000
     20 CBC         -5.1900     2.4270     5.9950 ca         1 DRY      -0.159000
     21 CAE         -5.5620     1.2200     6.5810 ca         1 DRY       0.121100
     22 OAD         -6.2920     1.2420     7.7330 os         1 DRY      -0.345900
     23 CAC         -5.7040     1.8890     8.8590 c3         1 DRY       0.149400
     24 CAB         -6.2350     1.2360    10.1300 c3         1 DRY      -0.110400
     25 CAA         -7.7510     1.3550    10.2830 c3         1 DRY       0.051300
     26 NAM         -8.2770     0.6850    11.4660 na         1 DRY      -0.063400
     27 CAN         -8.4170     1.2850    12.6820 cc         1 DRY      -0.136100
     28 CAF         -8.9400     0.3520    13.5480 cd         1 DRY      -0.203200
     29 CAG         -9.1210    -0.8580    12.8220 ca         1 DRY      -0.065800
     30 CAL         -9.6070    -2.1390    13.1530 ca         1 DRY      -0.183000
     31 CAH         -8.6950    -0.6200    11.5130 ca         1 DRY      -0.081200
     32 CAK         -8.7320    -1.6010    10.5160 ca         1 DRY      -0.138000
     33 CAJ         -9.2190    -2.8630    10.8690 ca         1 DRY      -0.130000
     34 CAI         -9.6500    -3.1300    12.1660 ca         1 DRY       0.137100
     35 OBI        -10.1190    -4.3700    12.4800 os         1 DRY      -0.315900
     36 CBJ        -11.1070    -4.4490    13.5060 c3         1 DRY       0.029400
     37 CBK        -12.0000    -5.6330    13.2640 c          1 DRY       0.895600
     38 OBM        -12.9230    -5.7340    14.2530 o          1 DRY      -0.833800
     39 OBL        -11.9230    -6.4060    12.3200 o          1 DRY      -0.833800
     40 HBJ1       -11.7010    -3.5430    13.5040 h1         1 DRY       0.032200
     41 HBJ2       -10.6190    -4.5560    14.4670 h1         1 DRY       0.032200
     42 HAJ         -9.2610    -3.6460    10.1210 ha         1 DRY       0.144000
     43 HAK         -8.3960    -1.3900     9.5080 ha         1 DRY       0.123000
     44 HAN         -8.2660     2.3370    12.8940 h4         1 DRY       0.155000
     45 HAF         -9.1720     0.5110    14.5940 ha         1 DRY       0.144000
     46 HAL         -9.9450    -2.3530    14.1600 ha         1 DRY       0.145000
     47 HAA1        -8.0110     2.4050    10.3380 h1         1 DRY       0.057200
     48 HAA2        -8.2220     0.9270     9.4060 h1         1 DRY       0.057200
     49 HAB1        -5.7620     1.7050    10.9840 hc         1 DRY       0.062200
     50 HAB2        -5.9690     0.1860    10.1180 hc         1 DRY       0.062200
     51 HAC1        -4.6270     1.7810     8.8190 h1         1 DRY       0.033700
     52 HAC2        -5.9650     2.9400     8.8530 h1         1 DRY       0.033700
     53 HBC         -5.4810     3.3640     6.4540 ha         1 DRY       0.139000
     54 HBB         -4.1560     3.3710     4.3650 ha         1 DRY       0.132000
     55 HBA         -3.0160     2.1410     2.5600 ha         1 DRY       0.136000
     56 HAW         -3.0200    -2.1460     2.5590 ha         1 DRY       0.139000
     57 HAZ         -4.3380    -2.1530     4.6500 ha         1 DRY       0.146000
     58 HBE1        -5.7520    -2.0260     5.9090 hc         1 DRY       0.060200
     59 HBE2        -6.5540    -1.0940     7.1720 hc         1 DRY       0.060200
     60 HBF1        -4.4170    -0.9680     8.4200 hc         1 DRY       0.036200
     61 HBF2        -3.6380    -1.9330     7.1650 hc         1 DRY       0.036200
     62 HBG1        -4.4340    -3.8520     8.0200 hc         1 DRY       0.039700
     63 HBG2        -4.8750    -2.9090     9.4500 hc         1 DRY       0.039700
     64 HBG3        -6.0680    -3.1930     8.1740 hc         1 DRY       0.039700
     65 HAS         -0.5550    -0.0020     3.3470 ha         1 DRY       0.152500
     66 HAP          1.9350    -0.0010     3.3540 ha         1 DRY       0.133000
     67 HAQ          3.1750     0.0000     1.2090 ha         1 DRY       0.131000
     68 HAR          1.9360     0.0010    -0.9380 ha         1 DRY       0.133000
     69 HAO         -0.5530    -0.0000    -0.9310 ha         1 DRY       0.152500
@<TRIPOS>BOND
     1     1     2 ar
     2     1     6 ar
     3     1    69 1
     4     2     3 ar
     5     2    68 1
     6     3     4 ar
     7     3    67 1
     8     4     5 ar
     9     4    66 1
    10     5     6 ar
    11     5    65 1
    12     6     7 1
    13     7     9 1
    14     7     8 2
    15     9    10 ar
    16     9    11 ar
    17    10    18 ar
    18    10    55 1
    19    11    56 1
    20    11    12 ar
    21    12    57 1
    22    12    13 ar
    23    13    18 ar
    24    13    14 ar
    25    14    21 ar
    26    14    15 1
    27    15    58 1
    28    15    59 1
    29    15    16 1
    30    16    60 1
    31    16    61 1
    32    16    17 1
    33    17    62 1
    34    17    63 1
    35    17    64 1
    36    18    19 ar
    37    19    20 ar
    38    19    54 1
    39    20    21 ar
    40    20    53 1
    41    21    22 1
    42    22    23 1
    43    23    24 1
    44    23    51 1
    45    23    52 1
    46    24    25 1
    47    24    49 1
    48    24    50 1
    49    25    26 1
    50    25    47 1
    51    25    48 1
    52    26    31 1
    53    26    27 1
    54    27    44 1
    55    27    28 2
    56    28    45 1
    57    28    29 1
    58    29    31 ar
    59    29    30 ar
    60    30    34 ar
    61    30    46 1
    62    31    32 ar
    63    32    33 ar
    64    32    43 1
    65    33    34 ar
    66    33    42 1
    67    34    35 1
    68    35    36 1
    69    36    37 1
    70    36    40 1
    71    36    41 1
    72    37    38 1
    73    37    39 1
@<TRIPOS>SUBSTRUCTURE
     1 DRY         1 TEMP              0 ****  ****    0 ROOT
