@<TRIPOS>MOLECULE
DS0
   17    17     1     0     0
SMALL
bcc


@<TRIPOS>ATOM
      1 O11          0.0000     0.0000     0.0000 o          1 DS0      -0.676833
      2 P8           1.6100     0.0000     0.0000 p5         1 DS0       0.591900
      3 O9           2.1470     0.0000     1.5180 o          1 DS0      -0.676833
      4 O10          2.1030     1.2080    -0.6980 o          1 DS0      -0.676833
      5 O7           2.1460    -1.3150    -0.7590 os         1 DS0      -0.360000
      6 C3           1.8380    -1.3560    -2.0740 c2         1 DS0       0.581600
      7 N2           1.1830    -0.4650    -2.7160 n2         1 DS0      -0.334200
      8 O1           1.0190    -0.7750    -4.0860 os         1 DS0      -0.192300
      9 C5           1.2830    -2.1840    -4.2470 c3         1 DS0       0.176400
     10 C4           2.2150    -2.4630    -3.0400 c3         1 DS0      -0.240800
     11 N6           3.6260    -2.3560    -3.4320 nz         1 DS0       0.074400
     12 H4           2.0010    -3.4340    -2.6100 hx         1 DS0       0.085700
     13 H51C         1.7950    -2.3760    -5.1820 h1         1 DS0       0.010700
     14 H52C         0.3680    -2.7590    -4.1700 h1         1 DS0       0.010700
     15 H61N         3.8380    -3.0610    -4.1100 hn         1 DS0       0.209133
     16 H62N         4.2060    -2.4820    -2.6270 hn         1 DS0       0.209133
     17 H63          3.7950    -1.4520    -3.8260 hn         1 DS0       0.209133
@<TRIPOS>BOND
     1     1     2 1   
     2     2     3 1   
     3     2     4 1   
     4     2     5 1   
     5     5     6 1   
     6     6     7 2   
     7     6    10 1   
     8     7     8 1   
     9     8     9 1   
    10     9    10 1   
    11     9    13 1   
    12     9    14 1   
    13    10    11 1   
    14    10    12 1   
    15    11    15 1   
    16    11    16 1   
    17    11    17 1   
@<TRIPOS>SUBSTRUCTURE
     1 DS0         1 TEMP              0 ****  ****    0 ROOT
