@<TRIPOS>MOLECULE
molecule
   13    13     1     0     0
SMALL
bcc


@<TRIPOS>ATOM
      1 C3           0.0000     0.0000     0.0000 ca         1 DS1       0.481200
      2 C2           1.3900     0.0000     0.0000 ca         1 DS1      -0.215500
      3 C1           2.0520     0.0000     1.2220 ca         1 DS1       0.481200
      4 O            2.0860     0.0010    -1.1690 oh         1 DS1      -0.506100
      5 N1           1.3420    -0.0000     2.3390 nb         1 DS1      -0.790000
      6 N2          -0.6440     0.0060     1.1560 nb         1 DS1      -0.790000
      7 C            0.0190     0.0000     2.3020 ca         1 DS1       0.937900
      8 N           -0.6900     0.0060     3.4930 nv         1 DS1      -0.988500
      9 H4          -0.5490     0.0020    -0.9340 h4         1 DS1       0.036100
     10 H2           3.1340    -0.0000     1.2590 h4         1 DS1       0.036100
     11 H3           2.2460    -0.8880    -1.4390 ho         1 DS1       0.412000
     12 H1          -1.6910     0.0080     3.4790 hn         1 DS1       0.451800
     13 H           -0.2020     0.0050     4.3660 hn         1 DS1       0.451800
@<TRIPOS>BOND
     1     8     7 1
     2     7     6 ar
     3     7     5 ar
     4     6     1 ar
     5     5     3 ar
     6     1     2 ar
     7     3     2 ar
     8     2     4 1
     9     1     9 1
    10     3    10 1
    11     4    11 1
    12     8    12 1
    13     8    13 1
@<TRIPOS>SUBSTRUCTURE
     1 DS1         1 TEMP              0 ****  ****    0 ROOT
