@<TRIPOS>MOLECULE
molecule
   69    70     1     0     0
SMALL
bcc


@<TRIPOS>ATOM
      1 C1           0.0000     0.0000     0.0000 ca         1 DS2       0.166100
      2 O1          -4.0160     0.0160    -2.6650 o          1 DS2      -0.828300
      3 C2           1.3880     0.0000     0.0000 ca         1 DS2      -0.126300
      4 O2          -1.9500     0.0190    -3.4500 o          1 DS2      -0.828300
      5 C3           2.0780     0.0000     1.1970 ca         1 DS2      -0.105000
      6 C4           1.3860    -0.0010     2.3950 ca         1 DS2      -0.142300
      7 C5           0.0040    -0.0010     2.3980 ca         1 DS2      -0.094000
      8 C6          -0.6900    -0.0000     1.2040 ca         1 DS2      -0.230000
      9 C10          2.1420    -0.0020     3.6980 c3         1 DS2       0.046600
     10 C11          3.6120     0.1920     3.4280 ca         1 DS2      -0.094300
     11 C12          1.6320     1.1360     4.5850 c3         1 DS2      -0.068900
     12 C13          1.9270    -1.3390     4.4110 c3         1 DS2      -0.068900
     13 C14          2.2900    -2.4850     3.4650 c3         1 DS2      -0.098100
     14 C20          1.7190     2.4580     3.8180 c3         1 DS2      -0.098100
     15 C26          4.0410     1.2900     2.7040 ca         1 DS2      -0.088000
     16 C27          5.3880     1.4700     2.4540 ca         1 DS2      -0.117300
     17 C28          6.3100     0.5510     2.9310 ca         1 DS2       0.132100
     18 C29          5.8760    -0.5500     3.6570 ca         1 DS2      -0.225000
     19 C30          4.5290    -0.7230     3.9090 ca         1 DS2      -0.100000
     20 C34          2.1410     0.0000    -1.3050 c3         1 DS2      -0.036800
     21 C38          5.8540     2.6670     1.6650 c3         1 DS2      -0.033800
     22 O42          7.6350     0.7260     2.6870 os         1 DS2      -0.330900
     23 C43          8.5260    -0.2620     3.2080 c3         1 DS2       0.129400
     24 C44          9.9650     0.1030     2.8350 c3         1 DS2       0.159100
     25 O47         10.1200     0.0400     1.4160 oh         1 DS2      -0.595800
     26 C48         10.9290    -0.8840     3.4960 c3         1 DS2      -0.083000
     27 C50         10.6210    -2.3020     3.0120 c3         1 DS2      -0.084100
     28 C54         12.3680    -0.5200     3.1240 c3         1 DS2      -0.084100
     29 C58         10.7640    -0.8170     5.0170 c3         1 DS2      -0.084100
     30 O62         -0.6810     0.0070    -1.1750 os         1 DS2      -0.285900
     31 C63         -2.1080     0.0060    -1.0990 c3         1 DS2       0.018400
     32 C64         -2.6860     0.0140    -2.4910 c          1 DS2       0.895600
     33 H3           3.1600    -0.0390     1.1970 ha         1 DS2       0.137000
     34 H5          -0.5350    -0.0130     3.3370 ha         1 DS2       0.116000
     35 H6          -1.7740     0.0100     1.2070 ha         1 DS2       0.145000
     36 H12          2.2390     1.1970     5.4800 hc         1 DS2       0.036950
     37 H12A         0.6010     0.9460     4.8600 hc         1 DS2       0.036950
     38 H13          2.5580    -1.3840     5.2910 hc         1 DS2       0.036950
     39 H13A         0.8890    -1.4280     4.7070 hc         1 DS2       0.036950
     40 H14          1.3840    -2.9080     3.0470 hc         1 DS2       0.037867
     41 H14A         2.8260    -3.2500     4.0130 hc         1 DS2       0.037867
     42 H14B         2.9150    -2.1090     2.6640 hc         1 DS2       0.037867
     43 H20          2.6990     2.8950     3.9630 hc         1 DS2       0.037867
     44 H20A         0.9620     3.1400     4.1870 hc         1 DS2       0.037867
     45 H20B         1.5570     2.2750     2.7630 hc         1 DS2       0.037867
     46 H26          3.3200     2.0080     2.3320 ha         1 DS2       0.159000
     47 H29          6.5950    -1.2690     4.0330 ha         1 DS2       0.126000
     48 H30          4.1910    -1.5820     4.4760 ha         1 DS2       0.139000
     49 H34          2.3850     1.0190    -1.5810 hc         1 DS2       0.043700
     50 H34A         3.0540    -0.5720    -1.1950 hc         1 DS2       0.043700
     51 H34B         1.5260    -0.4460    -2.0770 hc         1 DS2       0.043700
     52 H38          5.0010     3.2770     1.3960 hc         1 DS2       0.041033
     53 H38A         6.5410     3.2510     2.2660 hc         1 DS2       0.041033
     54 H38B         6.3570     2.3320     0.7650 hc         1 DS2       0.041033
     55 H43          8.4320    -0.3010     4.2870 h1         1 DS2       0.046200
     56 H43A         8.2780    -1.2300     2.7890 h1         1 DS2       0.046200
     57 H44         10.1840     1.1070     3.1780 h1         1 DS2       0.041700
     58 HO47        10.4860     0.8510     1.1030 ho         1 DS2       0.404000
     59 H50          9.7410    -2.6750     3.5240 hc         1 DS2       0.037811
     60 H50A        11.4640    -2.9480     3.2260 hc         1 DS2       0.037811
     61 H50B        10.4380    -2.2880     1.9440 hc         1 DS2       0.037811
     62 H54         13.0550    -1.1400     3.6870 hc         1 DS2       0.037811
     63 H54A        12.5490     0.5220     3.3570 hc         1 DS2       0.037811
     64 H54B        12.5190    -0.6840     2.0640 hc         1 DS2       0.037811
     65 H58         10.6330     0.2150     5.3210 hc         1 DS2       0.037811
     66 H58A         9.8950    -1.3930     5.3110 hc         1 DS2       0.037811
     67 H58B        11.6460    -1.2240     5.4940 hc         1 DS2       0.037811
     68 H63         -2.4420    -0.8800    -0.5740 h1         1 DS2       0.026200
     69 H63A        -2.4410     0.8880    -0.5660 h1         1 DS2       0.026200
@<TRIPOS>BOND
     1     1     3 ar
     2     1     8 ar
     3     1    30 1
     4     2    32 1
     5     3     5 ar
     6     3    20 1
     7     4    32 1
     8     5     6 ar
     9     6     7 ar
    10     6     9 1
    11     7     8 ar
    12     9    10 1
    13     9    11 1
    14     9    12 1
    15    10    15 ar
    16    10    19 ar
    17    11    14 1
    18    12    13 1
    19    15    16 ar
    20    16    17 ar
    21    16    21 1
    22    17    18 ar
    23    17    22 1
    24    18    19 ar
    25    22    23 1
    26    23    24 1
    27    24    25 1
    28    24    26 1
    29    26    27 1
    30    26    28 1
    31    26    29 1
    32    30    31 1
    33    31    32 1
    34     5    33 1
    35     7    34 1
    36     8    35 1
    37    11    36 1
    38    11    37 1
    39    12    38 1
    40    12    39 1
    41    13    40 1
    42    13    41 1
    43    13    42 1
    44    14    43 1
    45    14    44 1
    46    14    45 1
    47    15    46 1
    48    18    47 1
    49    19    48 1
    50    20    49 1
    51    20    50 1
    52    20    51 1
    53    21    52 1
    54    21    53 1
    55    21    54 1
    56    23    55 1
    57    23    56 1
    58    24    57 1
    59    25    58 1
    60    27    59 1
    61    27    60 1
    62    27    61 1
    63    28    62 1
    64    28    63 1
    65    28    64 1
    66    29    65 1
    67    29    66 1
    68    29    67 1
    69    31    68 1
    70    31    69 1
@<TRIPOS>SUBSTRUCTURE
     1 DS2         1 TEMP              0 ****  ****    0 ROOT
