@<TRIPOS>MOLECULE
DS2
   69    70     1     0     0
SMALL
bcc


@<TRIPOS>ATOM
      1 C1         -0.1040    0.1350   -0.0700 ca        1 DS2      0.162100
      2 O1         -3.2370   -0.2210   -3.1700 o         1 DS2     -0.819800
      3 C2          1.2020   -0.4200   -0.0490 ca        1 DS2     -0.123300
      4 O2         -2.1060    1.6740   -3.5680 o         1 DS2     -0.819800
      5 C3          1.8830   -0.4940    1.1610 ca        1 DS2     -0.104000
      6 C4          1.3190   -0.0260    2.3600 ca        1 DS2     -0.145300
      7 C5          0.0240    0.4970    2.3200 ca        1 DS2     -0.096000
      8 C6         -0.6840    0.5850    1.1240 ca        1 DS2     -0.224000
      9 C10         2.0730   -0.1700    3.6590 c3        1 DS2      0.062600
     10 C11         3.5630    0.0180    3.4830 ca        1 DS2     -0.075300
     11 C12         1.6240    0.8580    4.7210 c3        1 DS2     -0.066900
     12 C13         1.7220   -1.5570    4.2370 c3        1 DS2     -0.066900
     13 C14         2.2090   -2.7200    3.4140 c3        1 DS2     -0.097600
     14 C20         1.7720    2.2950    4.2990 c3        1 DS2     -0.097600
     15 C26         4.0490    0.9300    2.5330 ca        1 DS2     -0.093000
     16 C27         5.4140    1.1690    2.3740 ca        1 DS2     -0.099300
     17 C28         6.3180    0.4770    3.2090 ca        1 DS2      0.106100
     18 C29         5.8540   -0.4230    4.1700 ca        1 DS2     -0.199000
     19 C30         4.4840   -0.6430    4.3020 ca        1 DS2     -0.109000
     20 C34         1.8040   -0.9100   -1.3080 c3        1 DS2     -0.039800
     21 C38         5.9060    2.1330    1.3650 c3        1 DS2     -0.040800
     22 O42         7.6570    0.7910    3.0310 os        1 DS2     -0.348900
     23 C43         8.5880   -0.1660    3.5500 c3        1 DS2      0.090400
     24 C44         9.9380    0.2300    2.9400 c3        1 DS2      0.150100
     25 O47         9.8870    0.1200    1.5230 oh        1 DS2     -0.604800
     26 C48        11.0950   -0.6610    3.4350 c3        1 DS2     -0.048000
     27 C50        10.8600   -2.1140    3.0550 c3        1 DS2     -0.087767
     28 C54        12.3810   -0.1720    2.7790 c3        1 DS2     -0.087767
     29 C58        11.2290   -0.5340    4.9450 c3        1 DS2     -0.087767
     30 O62        -0.7060    0.1790   -1.2970 os        1 DS2     -0.284900
     31 C63        -2.0180    0.7530   -1.3430 c3        1 DS2     -0.011600
     32 C64        -2.4770    0.7230   -2.8320 c         1 DS2      0.925600
     33 H3          2.8920   -0.9360    1.1780 ha        1 DS2      0.126000
     34 H5         -0.4660    0.8490    3.2400 ha        1 DS2      0.117000
     35 H6         -1.6990    1.0070    1.1230 ha        1 DS2      0.142000
     36 H12         2.2370    0.6820    5.6460 hc        1 DS2      0.034200
     37 H12A        0.5550    0.6530    4.9940 hc        1 DS2      0.034200
     38 H13         2.1270   -1.6360    5.2810 hc        1 DS2      0.034200
     39 H13A        0.6020   -1.6120    4.3160 hc        1 DS2      0.034200
     40 H14         1.7360   -2.7090    2.4010 hc        1 DS2      0.037367
     41 H14A        1.9450   -3.6810    3.9190 hc        1 DS2      0.037367
     42 H14B        3.3180   -2.6810    3.2820 hc        1 DS2      0.037367
     43 H20         1.3770    2.9690    5.0980 hc        1 DS2      0.037367
     44 H20A        1.2080    2.4940    3.3550 hc        1 DS2      0.037367
     45 H20B        2.8460    2.5470    4.1230 hc        1 DS2      0.037367
     46 H26         3.3330    1.4710    1.8910 ha        1 DS2      0.159000
     47 H29         6.5540   -0.9580    4.8250 ha        1 DS2      0.128000
     48 H30         4.1390   -1.3510    5.0710 ha        1 DS2      0.132000
     49 H34         1.7880   -0.0960   -2.0780 hc        1 DS2      0.044367
     50 H34A        2.8560   -1.2500   -1.1550 hc        1 DS2      0.044367
     51 H34B        1.2000   -1.7620   -1.7110 hc        1 DS2      0.044367
     52 H38         6.1620    3.1040    1.8580 hc        1 DS2      0.044033
     53 H38A        6.8330    1.7410    0.8740 hc        1 DS2      0.044033
     54 H38B        5.1350    2.3240    0.5800 hc        1 DS2      0.044033
     55 H43         8.6140   -0.0850    4.6670 h1        1 DS2      0.051200
     56 H43A        8.2930   -1.2010    3.2390 h1        1 DS2      0.051200
     57 H44        10.1570    1.3020    3.2130 h1        1 DS2      0.044700
     58 HO47        9.0940    0.5940    1.2390 ho        1 DS2      0.420000
     59 H50        11.7660   -2.7230    3.2890 hc        1 DS2      0.038033
     60 H50A        9.9950   -2.5350    3.6210 hc        1 DS2      0.038033
     61 H50B       10.6450   -2.1880    1.9610 hc        1 DS2      0.038033
     62 H54        12.2810   -0.2200    1.6670 hc        1 DS2      0.038033
     63 H54A       12.5890    0.8830    3.0750 hc        1 DS2      0.038033
     64 H54B       13.2410   -0.8100    3.0940 hc        1 DS2      0.038033
     65 H58        11.2640    0.5400    5.2470 hc        1 DS2      0.038033
     66 H58A       12.1710   -1.0300    5.2820 hc        1 DS2      0.038033
     67 H58B       10.3720   -1.0260    5.4640 hc        1 DS2      0.038033
     68 H63        -2.7120    0.1440   -0.7100 h1        1 DS2      0.021700
     69 H63A       -1.9760    1.8100   -0.9760 h1        1 DS2      0.021700
@<TRIPOS>BOND
     1    1    3 ar  
     2    1    8 ar  
     3    1   30 1   
     4    2   32 1   
     5    3    5 ar  
     6    3   20 1   
     7    4   32 1   
     8    5    6 ar  
     9    5   33 1   
    10    6    7 ar  
    11    6    9 1   
    12    7    8 ar  
    13    7   34 1   
    14    8   35 1   
    15    9   10 1   
    16    9   11 1   
    17    9   12 1   
    18   10   15 ar  
    19   10   19 ar  
    20   11   14 1   
    21   11   36 1   
    22   11   37 1   
    23   12   13 1   
    24   12   38 1   
    25   12   39 1   
    26   13   40 1   
    27   13   41 1   
    28   13   42 1   
    29   14   43 1   
    30   14   44 1   
    31   14   45 1   
    32   15   16 ar  
    33   15   46 1   
    34   16   17 ar  
    35   16   21 1   
    36   17   18 ar  
    37   17   22 1   
    38   18   19 ar  
    39   18   47 1   
    40   19   48 1   
    41   20   49 1   
    42   20   50 1   
    43   20   51 1   
    44   21   52 1   
    45   21   53 1   
    46   21   54 1   
    47   22   23 1   
    48   23   24 1   
    49   23   55 1   
    50   23   56 1   
    51   24   25 1   
    52   24   26 1   
    53   24   57 1   
    54   25   58 1   
    55   26   27 1   
    56   26   28 1   
    57   26   29 1   
    58   27   59 1   
    59   27   60 1   
    60   27   61 1   
    61   28   62 1   
    62   28   63 1   
    63   28   64 1   
    64   29   65 1   
    65   29   66 1   
    66   29   67 1   
    67   30   31 1   
    68   31   32 1   
    69   31   68 1   
    70   31   69 1   
@<TRIPOS>SUBSTRUCTURE
     1 DS2         1 TEMP              0 ****  ****    0 ROOT
