@<TRIPOS>MOLECULE
molecule
   78    79     1     0     0
SMALL
bcc


@<TRIPOS>ATOM
      1 C1           0.0000     0.0000     0.0000 ca         1 DS3       0.154100
      2 O1          -6.8610     0.0120    -2.6870 o          1 DS3      -0.855800
      3 C2           1.3870     0.0000     0.0000 ca         1 DS3      -0.120300
      4 O2          -7.0460     0.0230    -4.8890 o          1 DS3      -0.855800
      5 C3           2.0770     0.0000     1.1970 ca         1 DS3      -0.102000
      6 C4           1.3860    -0.0010     2.3940 ca         1 DS3      -0.121300
      7 C5           0.0030    -0.0020     2.3970 ca         1 DS3      -0.092000
      8 C6          -0.6910    -0.0010     1.2030 ca         1 DS3      -0.217000
      9 C10          2.1410    -0.0010     3.6980 c3         1 DS3       0.043600
     10 C11          3.6110     0.1940     3.4280 ca         1 DS3      -0.101300
     11 C12          1.6300     1.1370     4.5840 c3         1 DS3      -0.069400
     12 C13          1.9260    -1.3380     4.4110 c3         1 DS3      -0.069400
     13 C14          2.2890    -2.4850     3.4650 c3         1 DS3      -0.098600
     14 C20          1.7170     2.4580     3.8180 c3         1 DS3      -0.098600
     15 C26          4.0400     1.2910     2.7040 ca         1 DS3      -0.093000
     16 C27          5.3860     1.4720     2.4560 ca         1 DS3      -0.117300
     17 C28          6.3090     0.5520     2.9330 ca         1 DS3       0.136100
     18 C29          5.8760    -0.5470     3.6580 ca         1 DS3      -0.223000
     19 C30          4.5290    -0.7210     3.9090 ca         1 DS3      -0.098000
     20 C34          2.1410     0.0010    -1.3050 c3         1 DS3      -0.033800
     21 C38          5.8530     2.6690     1.6650 c3         1 DS3      -0.034800
     22 O42          7.6340     0.7280     2.6880 os         1 DS3      -0.329900
     23 C43          8.5260    -0.2590     3.2090 c3         1 DS3       0.128400
     24 C44          9.9650     0.1060     2.8370 c3         1 DS3       0.159100
     25 O47         10.1190     0.0440     1.4170 oh         1 DS3      -0.595800
     26 C48         10.9280    -0.8800     3.4990 c3         1 DS3      -0.083000
     27 C50         10.6200    -2.2980     3.0150 c3         1 DS3      -0.084100
     28 C54         12.3670    -0.5140     3.1260 c3         1 DS3      -0.084100
     29 C58         10.7630    -0.8120     5.0190 c3         1 DS3      -0.084100
     30 O62         -0.6810     0.0050    -1.1760 os         1 DS3      -0.331900
     31 C63         -2.1080     0.0050    -1.1000 c3         1 DS3       0.130400
     32 C64         -2.6940     0.0120    -2.5130 c3         1 DS3      -0.087400
     33 C65         -4.2220     0.0110    -2.4310 c3         1 DS3      -0.062400
     34 C66         -4.8090     0.0190    -3.8450 c3         1 DS3      -0.180400
     35 C67         -6.3130     0.0170    -3.7640 c          1 DS3       0.890600
     36 H3           3.1600     0.0000     1.1970 ha         1 DS3       0.145000
     37 H5          -0.5370    -0.0030     3.3360 ha         1 DS3       0.126000
     38 H6          -1.7740    -0.0010     1.2060 ha         1 DS3       0.145000
     39 H12          0.5990     0.9460     4.8580 hc         1 DS3       0.040700
     40 H12A         2.2360     1.1980     5.4800 hc         1 DS3       0.040700
     41 H13          0.8880    -1.4280     4.7050 hc         1 DS3       0.040700
     42 H13A         2.5560    -1.3830     5.2910 hc         1 DS3       0.040700
     43 H14          1.3840    -2.9100     3.0500 hc         1 DS3       0.038367
     44 H14A         2.9120    -2.1080     2.6630 hc         1 DS3       0.038367
     45 H14B         2.8280    -3.2480     4.0140 hc         1 DS3       0.038367
     46 H20          2.6980     2.8950     3.9610 hc         1 DS3       0.038367
     47 H20A         1.5530     2.2760     2.7630 hc         1 DS3       0.038367
     48 H20B         0.9610     3.1410     4.1870 hc         1 DS3       0.038367
     49 H26          3.3190     2.0100     2.3320 ha         1 DS3       0.156000
     50 H29          6.5940    -1.2660     4.0330 ha         1 DS3       0.129000
     51 H30          4.1910    -1.5800     4.4760 ha         1 DS3       0.141000
     52 H34          1.7840    -0.8100    -1.9280 hc         1 DS3       0.041700
     53 H34A         1.9810     0.9440    -1.8140 hc         1 DS3       0.041700
     54 H34B         3.1980    -0.1300    -1.1120 hc         1 DS3       0.041700
     55 H38          4.9960     3.2590     1.3650 hc         1 DS3       0.042033
     56 H38A         6.5100     3.2730     2.2790 hc         1 DS3       0.042033
     57 H38B         6.3870     2.3340     0.7850 hc         1 DS3       0.042033
     58 H43          8.4310    -0.2980     4.2880 h1         1 DS3       0.047200
     59 H43A         8.2790    -1.2260     2.7890 h1         1 DS3       0.047200
     60 H44         10.1830     1.1100     3.1800 h1         1 DS3       0.042700
     61 HO47        10.4850     0.8550     1.1050 ho         1 DS3       0.404000
     62 H50         10.4260    -2.2810     1.9490 hc         1 DS3       0.038256
     63 H50A        11.4680    -2.9410     3.2170 hc         1 DS3       0.038256
     64 H50B         9.7480    -2.6760     3.5340 hc         1 DS3       0.038256
     65 H54         12.5160    -0.6690     2.0640 hc         1 DS3       0.038256
     66 H54A        13.0540    -1.1410     3.6820 hc         1 DS3       0.038256
     67 H54B        12.5500     0.5250     3.3690 hc         1 DS3       0.038256
     68 H58         11.6460    -1.2200     5.4960 hc         1 DS3       0.038256
     69 H58A        10.6310     0.2190     5.3220 hc         1 DS3       0.038256
     70 H58B         9.8940    -1.3890     5.3130 hc         1 DS3       0.038256
     71 H63         -2.4420     0.8860    -0.5660 h1         1 DS3       0.034700
     72 H63A        -2.4410    -0.8830    -0.5750 h1         1 DS3       0.034700
     73 H64         -2.3610    -0.8700    -3.0470 hc         1 DS3       0.043700
     74 H64A        -2.3610     0.8990    -3.0370 hc         1 DS3       0.043700
     75 H65         -4.5550     0.8930    -1.8970 hc         1 DS3       0.046700
     76 H65A        -4.5550    -0.8760    -1.9060 hc         1 DS3       0.046700
     77 H66         -4.4760     0.9060    -4.3690 hc         1 DS3       0.029700
     78 H66A        -4.4750    -0.8630    -4.3790 hc         1 DS3       0.029700
@<TRIPOS>BOND
     1     1     3 ar
     2     1     8 ar
     3     1    30 1
     4     2    35 1
     5     3     5 ar
     6     3    20 1
     7     4    35 1
     8     5     6 ar
     9     6     7 ar
    10     6     9 1
    11     7     8 ar
    12     9    10 1
    13     9    11 1
    14     9    12 1
    15    10    15 ar
    16    10    19 ar
    17    11    14 1
    18    12    13 1
    19    15    16 ar
    20    16    17 ar
    21    16    21 1
    22    17    18 ar
    23    17    22 1
    24    18    19 ar
    25    22    23 1
    26    23    24 1
    27    24    25 1
    28    24    26 1
    29    26    27 1
    30    26    28 1
    31    26    29 1
    32    30    31 1
    33    31    32 1
    34    32    33 1
    35    33    34 1
    36    34    35 1
    37     5    36 1
    38     7    37 1
    39     8    38 1
    40    11    39 1
    41    11    40 1
    42    12    41 1
    43    12    42 1
    44    13    43 1
    45    13    44 1
    46    13    45 1
    47    14    46 1
    48    14    47 1
    49    14    48 1
    50    15    49 1
    51    18    50 1
    52    19    51 1
    53    20    52 1
    54    20    53 1
    55    20    54 1
    56    21    55 1
    57    21    56 1
    58    21    57 1
    59    23    58 1
    60    23    59 1
    61    24    60 1
    62    25    61 1
    63    27    62 1
    64    27    63 1
    65    27    64 1
    66    28    65 1
    67    28    66 1
    68    28    67 1
    69    29    68 1
    70    29    69 1
    71    29    70 1
    72    31    71 1
    73    31    72 1
    74    32    73 1
    75    32    74 1
    76    33    75 1
    77    33    76 1
    78    34    77 1
    79    34    78 1
@<TRIPOS>SUBSTRUCTURE
     1 DS3         1 TEMP              0 ****  ****    0 ROOT
