@<TRIPOS>MOLECULE
DS3
   78    79     1     0     0
SMALL
bcc


@<TRIPOS>ATOM
      1 C1         -0.2010   -0.2000    0.0720 ca        1 DS3      0.144100
      2 O1         -6.8780    0.5490   -3.2010 o         1 DS3     -0.850300
      3 C2          1.1210   -0.7090    0.0670 ca        1 DS3     -0.113300
      4 O2         -6.5400    1.5700   -5.1580 o         1 DS3     -0.850300
      5 C3          1.8400   -0.7160    1.2580 ca        1 DS3     -0.103000
      6 C4          1.2950   -0.2260    2.4560 ca        1 DS3     -0.119300
      7 C5         -0.0180    0.2530    2.4390 ca        1 DS3     -0.097000
      8 C6         -0.7640    0.2740    1.2620 ca        1 DS3     -0.209000
      9 C10         2.0910   -0.3010    3.7370 c3        1 DS3      0.057600
     10 C11         3.5680   -0.0800    3.5070 ca        1 DS3     -0.082300
     11 C12         1.6420    0.7520    4.7730 c3        1 DS3     -0.068400
     12 C13         1.7940   -1.6750    4.3730 c3        1 DS3     -0.068400
     13 C14         2.2830   -2.8540    3.5740 c3        1 DS3     -0.098100
     14 C20         1.7330    2.1780    4.2970 c3        1 DS3     -0.098100
     15 C26         3.9990    0.8210    2.5200 ca        1 DS3     -0.096000
     16 C27         5.3510    1.0890    2.3080 ca        1 DS3     -0.100300
     17 C28         6.3010    0.4390    3.1260 ca        1 DS3      0.113100
     18 C29         5.8920   -0.4490    4.1240 ca        1 DS3     -0.200000
     19 C30         4.5320   -0.6980    4.3090 ca        1 DS3     -0.105000
     20 C34         1.7070   -1.2220   -1.1910 c3        1 DS3     -0.039800
     21 C38         5.7870    2.0420    1.2640 c3        1 DS3     -0.040800
     22 O42         7.6220    0.7750    2.8830 os        1 DS3     -0.347900
     23 C43         8.6010   -0.0900    3.4710 c3        1 DS3      0.090400
     24 C44         9.9310    0.3370    2.8360 c3        1 DS3      0.150100
     25 O47         9.8940    0.1170    1.4320 oh        1 DS3     -0.602800
     26 C48        11.1330   -0.4470    3.4000 c3        1 DS3     -0.047000
     27 C50        10.9820   -1.9350    3.1300 c3        1 DS3     -0.087767
     28 C54        12.3930    0.0620    2.7100 c3        1 DS3     -0.087767
     29 C58        11.2510   -0.1990    4.8960 c3        1 DS3     -0.087767
     30 O62        -0.8440   -0.2220   -1.1420 os        1 DS3     -0.330900
     31 C63        -2.1910    0.2830   -1.1550 c3        1 DS3      0.126400
     32 C64        -2.6830    0.1500   -2.5840 c3        1 DS3     -0.084400
     33 C65        -4.0940    0.6890   -2.6960 c3        1 DS3     -0.066400
     34 C66        -4.6360    0.5580   -4.0980 c3        1 DS3     -0.195400
     35 C67        -6.1310    0.9240   -4.1510 c         1 DS3      0.908600
     36 H3          2.8650   -1.1240    1.2590 ha        1 DS3      0.135000
     37 H5         -0.4910    0.6220    3.3610 ha        1 DS3      0.128000
     38 H6         -1.7920    0.6620    1.2830 ha        1 DS3      0.145000
     39 H12         2.2890    0.6280    5.6840 hc        1 DS3      0.037950
     40 H12A        0.5900    0.5260    5.0890 hc        1 DS3      0.037950
     41 H13         0.6790   -1.7540    4.4930 hc        1 DS3      0.037950
     42 H13A        2.2360   -1.7060    5.4030 hc        1 DS3      0.037950
     43 H14         2.0640   -3.8020    4.1230 hc        1 DS3      0.038033
     44 H14A        1.7730   -2.8960    2.5800 hc        1 DS3      0.038033
     45 H14B        3.3840   -2.7920    3.3980 hc        1 DS3      0.038033
     46 H20         1.1350    2.3280    3.3650 hc        1 DS3      0.038033
     47 H20A        1.3420    2.8670    5.0850 hc        1 DS3      0.038033
     48 H20B        2.7930    2.4560    4.0790 hc        1 DS3      0.038033
     49 H26         3.2490    1.3320    1.8920 ha        1 DS3      0.153000
     50 H29         6.6260   -0.9520    4.7680 ha        1 DS3      0.131000
     51 H30         4.2330   -1.3940    5.1070 ha        1 DS3      0.134000
     52 H34         1.0800   -2.0600   -1.5890 hc        1 DS3      0.044367
     53 H34A        2.7490   -1.5900   -1.0370 hc        1 DS3      0.044367
     54 H34B        1.7180   -0.4120   -1.9640 hc        1 DS3      0.044367
     55 H38         6.0780    3.0150    1.7330 hc        1 DS3      0.044700
     56 H38A        4.9710    2.2320    0.5240 hc        1 DS3      0.044700
     57 H38B        6.6800    1.6410    0.7220 hc        1 DS3      0.044700
     58 H43         8.3650   -1.1590    3.2290 h1        1 DS3      0.052200
     59 H43A        8.6170    0.0680    4.5790 h1        1 DS3      0.052200
     60 H44        10.0870    1.4370    3.0290 h1        1 DS3      0.045700
     61 HO47        9.0910    0.5480    1.1080 ho        1 DS3      0.418000
     62 H50        10.7790   -2.1050    2.0450 hc        1 DS3      0.038367
     63 H50A       11.9190   -2.4730    3.4130 hc        1 DS3      0.038367
     64 H50B       10.1390   -2.3610    3.7250 hc        1 DS3      0.038367
     65 H54        12.3030   -0.0750    1.6050 hc        1 DS3      0.038367
     66 H54A       12.5410    1.1470    2.9260 hc        1 DS3      0.038367
     67 H54B       13.2860   -0.5000    3.0740 hc        1 DS3      0.038367
     68 H58        10.4210   -0.6990    5.4500 hc        1 DS3      0.038367
     69 H58A       11.2230    0.8950    5.1150 hc        1 DS3      0.038367
     70 H58B       12.2190   -0.6130    5.2710 hc        1 DS3      0.038367
     71 H63        -2.8210   -0.3240   -0.4540 h1        1 DS3      0.038700
     72 H63A       -2.1860    1.3560   -0.8270 h1        1 DS3      0.038700
     73 H64        -1.9960    0.7100   -3.2710 hc        1 DS3      0.044700
     74 H64A       -2.6540   -0.9270   -2.8900 hc        1 DS3      0.044700
     75 H65        -4.7770    0.1380   -1.9960 hc        1 DS3      0.047200
     76 H65A       -4.1090    1.7690   -2.3920 hc        1 DS3      0.047200
     77 H66        -4.5310   -0.4990   -4.4530 hc        1 DS3      0.021700
     78 H66A       -4.0680    1.2150   -4.8020 hc        1 DS3      0.021700
@<TRIPOS>BOND
     1    1    3 ar  
     2    1    8 ar  
     3    1   30 1   
     4    2   35 1   
     5    3    5 ar  
     6    3   20 1   
     7    4   35 1   
     8    5    6 ar  
     9    5   36 1   
    10    6    7 ar  
    11    6    9 1   
    12    7    8 ar  
    13    7   37 1   
    14    8   38 1   
    15    9   10 1   
    16    9   11 1   
    17    9   12 1   
    18   10   15 ar  
    19   10   19 ar  
    20   11   14 1   
    21   11   39 1   
    22   11   40 1   
    23   12   13 1   
    24   12   41 1   
    25   12   42 1   
    26   13   43 1   
    27   13   44 1   
    28   13   45 1   
    29   14   46 1   
    30   14   47 1   
    31   14   48 1   
    32   15   16 ar  
    33   15   49 1   
    34   16   17 ar  
    35   16   21 1   
    36   17   18 ar  
    37   17   22 1   
    38   18   19 ar  
    39   18   50 1   
    40   19   51 1   
    41   20   52 1   
    42   20   53 1   
    43   20   54 1   
    44   21   55 1   
    45   21   56 1   
    46   21   57 1   
    47   22   23 1   
    48   23   24 1   
    49   23   58 1   
    50   23   59 1   
    51   24   25 1   
    52   24   26 1   
    53   24   60 1   
    54   25   61 1   
    55   26   27 1   
    56   26   28 1   
    57   26   29 1   
    58   27   62 1   
    59   27   63 1   
    60   27   64 1   
    61   28   65 1   
    62   28   66 1   
    63   28   67 1   
    64   29   68 1   
    65   29   69 1   
    66   29   70 1   
    67   30   31 1   
    68   31   32 1   
    69   31   71 1   
    70   31   72 1   
    71   32   33 1   
    72   32   73 1   
    73   32   74 1   
    74   33   34 1   
    75   33   75 1   
    76   33   76 1   
    77   34   35 1   
    78   34   77 1   
    79   34   78 1   
@<TRIPOS>SUBSTRUCTURE
     1 DS3         1 TEMP              0 ****  ****    0 ROOT
