@<TRIPOS>MOLECULE
molecule
   72    74     1     0     0
SMALL
bcc


@<TRIPOS>ATOM
      1 C1           0.0000     0.0000     0.0000 cp         1 DS4      -0.012000
      2 C2           1.3940     0.0000     0.0000 ca         1 DS4      -0.067300
      3 C3           2.0800     0.0000     1.1970 ca         1 DS4      -0.140000
      4 C4           1.3890     0.0000     2.3950 ca         1 DS4      -0.084300
      5 C5           0.0060     0.0000     2.4000 ca         1 DS4      -0.136000
      6 C6          -0.6920     0.0060     1.2090 ca         1 DS4      -0.120000
      7 C10          2.1440     0.0000     3.6980 c3         1 DS4       0.030600
      8 C11          3.6130     0.1990     3.4280 ca         1 DS4      -0.017300
      9 C12          1.6310     1.1360     4.5860 c3         1 DS4      -0.066900
     10 C13          1.9330    -1.3370     4.4110 c3         1 DS4      -0.066900
     11 C14          2.3120    -2.4820     3.4680 c3         1 DS4      -0.096600
     12 C20          1.7120     2.4580     3.8180 c3         1 DS4      -0.096600
     13 C26          4.0340     1.2710     2.6610 ca         1 DS4      -0.129000
     14 C27          5.3770     1.4590     2.4090 ca         1 DS4      -0.055300
     15 C28          6.3130     0.5630     2.9300 ca         1 DS4      -0.100800
     16 C29          5.8820    -0.5160     3.7030 ca         1 DS4      -0.131000
     17 C30          4.5360    -0.6890     3.9520 ca         1 DS4      -0.142000
     18 C34          2.1490    -0.0010    -1.3040 c3         1 DS4      -0.051800
     19 C9           5.8330     2.6260     1.5740 c3         1 DS4      -0.052800
     20 C8           7.7540     0.7570     2.6630 ce         1 DS4      -0.005200
     21 C43          8.6400    -0.0940     3.1590 c2         1 DS4      -0.241200
     22 C44         10.1090     0.1030     2.8880 c3         1 DS4       0.115000
     23 O47         10.2910     1.2680     2.0800 oh         1 DS4      -0.555800
     24 C7          10.8530     0.2810     4.2120 c3         1 DS4       0.594400
     25 F5          10.6750    -0.8600     5.0040 f          1 DS4      -0.211133
     26 C15         10.6610    -1.1190     2.1520 c3         1 DS4       0.594400
     27 F2           9.9810    -1.2820     0.9410 f          1 DS4      -0.211133
     28 F3          12.0250    -0.9360     1.9000 f          1 DS4      -0.211133
     29 F1          10.4830    -2.2590     2.9430 f          1 DS4      -0.211133
     30 F6          12.2170     0.4640     3.9600 f          1 DS4      -0.211133
     31 F4          10.3490     1.3990     4.8850 f          1 DS4      -0.211133
     32 C50         -1.7690    -0.9190    -1.4990 ca         1 DS4      -0.132000
     33 C51         -0.7440     0.0010    -1.2850 cp         1 DS4      -0.065000
     34 C52         -0.4200     0.9200    -2.2790 ca         1 DS4      -0.162000
     35 C53         -1.1170     0.9160    -3.4730 ca         1 DS4       0.136900
     36 C54         -2.1350    -0.0000    -3.6790 ca         1 DS4      -0.029300
     37 C55         -2.4590    -0.9140    -2.6940 ca         1 DS4      -0.109000
     38 C56         -2.8930     0.0000    -4.9820 c3         1 DS4      -0.156100
     39 C57         -2.1420    -0.8210    -5.9990 c          1 DS4       0.896600
     40 O58         -1.1000    -1.3510    -5.6970 o          1 DS4      -0.840800
     41 O59         -2.6330    -0.9630    -7.2400 o          1 DS4      -0.840800
     42 F60         -0.8050     1.8080    -4.4400 f          1 DS4      -0.139900
     43 H1           3.1630     0.0000     1.1990 ha         1 DS4       0.140000
     44 H2          -0.5310     0.0030     3.3410 ha         1 DS4       0.121000
     45 H3          -1.7760     0.0060     1.2140 ha         1 DS4       0.135000
     46 H4           0.6010     0.9420     4.8620 hc         1 DS4       0.040450
     47 H5           2.2390     1.2000     5.4800 hc         1 DS4       0.040450
     48 H6           2.5560    -1.3770     5.2960 hc         1 DS4       0.040450
     49 H7           0.8920    -1.4340     4.6970 hc         1 DS4       0.040450
     50 H8           2.9700    -2.1090     2.6930 hc         1 DS4       0.038867
     51 H9           1.4150    -2.8890     3.0160 hc         1 DS4       0.038867
     52 H10          2.8180    -3.2590     4.0290 hc         1 DS4       0.038867
     53 H11          2.6880     2.9030     3.9680 hc         1 DS4       0.038867
     54 H12          0.9470     3.1340     4.1820 hc         1 DS4       0.038867
     55 H13          1.5570     2.2730     2.7620 hc         1 DS4       0.038867
     56 H14          3.3070     1.9670     2.2610 ha         1 DS4       0.158000
     57 H15          6.6060    -1.1800     4.1590 ha         1 DS4       0.128000
     58 H16          4.7000    -1.2170     4.8830 ha         1 DS4       0.147000
     59 H17          3.1480    -0.3890    -1.1430 hc         1 DS4       0.050700
     60 H18          1.6310    -0.6260    -2.0210 hc         1 DS4       0.050700
     61 H19          2.2120     1.0110    -1.6860 hc         1 DS4       0.050700
     62 H20          6.3580     2.2610     0.6990 hc         1 DS4       0.047367
     63 H21          6.4970     3.2510     2.1580 hc         1 DS4       0.047367
     64 H22          4.9720     3.2060     1.2630 hc         1 DS4       0.047367
     65 H23          8.0850     1.5960     2.0630 ha         1 DS4       0.155000
     66 H24          8.3080    -0.9330     3.7590 ha         1 DS4       0.163000
     67 H25         11.2130     1.4140     1.9430 ho         1 DS4       0.426000
     68 H27          0.3760     1.6370    -2.1180 ha         1 DS4       0.130000
     69 H28         -3.2560    -1.6290    -2.8610 ha         1 DS4       0.136000
     70 H29         -3.8770    -0.4270    -4.8280 hc         1 DS4       0.046700
     71 H30         -2.9940     1.0170    -5.3420 hc         1 DS4       0.046700
     72 H26         -2.0240    -1.6360    -0.7280 ha         1 DS4       0.118000
@<TRIPOS>BOND
     1    12     9 1
     2    18     2 1
     3    29    26 1
     4    28    26 1
     5     9     7 1
     6    26    27 1
     7    26    22 1
     8     3     2 ar
     9     3     4 ar
    10     2     1 ar
    11    17    16 ar
    12    17     8 ar
    13    16    15 ar
    14     4     7 1
    15     4     5 ar
    16     7     8 1
    17     7    10 1
    18    42    35 1
    19    34    35 ar
    20    34    33 ar
    21     1    33 1
    22     1     6 ar
    23     8    13 ar
    24    15    20 1
    25    15    14 ar
    26    35    36 ar
    27    33    32 ar
    28    20    21 2
    29    36    38 1
    30    36    37 ar
    31    32    37 ar
    32    38    39 1
    33    22    21 1
    34    22    23 1
    35    22    24 1
    36    31    24 1
    37    13    14 ar
    38    14    19 1
    39     5     6 ar
    40    10    11 1
    41    24    25 1
    42    24    30 1
    43    39    40 1
    44    39    41 1
    45     3    43 1
    46     5    44 1
    47     6    45 1
    48     9    46 1
    49     9    47 1
    50    10    48 1
    51    10    49 1
    52    11    50 1
    53    11    51 1
    54    11    52 1
    55    12    53 1
    56    12    54 1
    57    12    55 1
    58    13    56 1
    59    16    57 1
    60    17    58 1
    61    18    59 1
    62    18    60 1
    63    18    61 1
    64    19    62 1
    65    19    63 1
    66    19    64 1
    67    20    65 1
    68    21    66 1
    69    23    67 1
    70    32    72 1
    71    34    68 1
    72    37    69 1
    73    38    70 1
    74    38    71 1
@<TRIPOS>SUBSTRUCTURE
     1 DS4         1 TEMP              0 ****  ****    0 ROOT
