@<TRIPOS>MOLECULE
DS4
   72    74     1     0     0
SMALL
bcc


@<TRIPOS>ATOM
      1 C1          0.0780   -0.0040   -0.0320 cp        1 DS4     -0.005000
      2 C2          1.3220   -0.6350   -0.2140 ca        1 DS4     -0.065300
      3 C3          2.1960   -0.7580    0.8720 ca        1 DS4     -0.137000
      4 C4          1.8760   -0.2590    2.1400 ca        1 DS4     -0.085300
      5 C5          0.6300    0.3570    2.3120 ca        1 DS4     -0.137000
      6 C6         -0.2480    0.4870    1.2410 ca        1 DS4     -0.126000
      7 C10         2.8250   -0.4570    3.2980 c3        1 DS4      0.046600
      8 C11         4.2720   -0.3790    2.8700 ca        1 DS4     -0.038300
      9 C12         2.6350    0.6010    4.4070 c3        1 DS4     -0.067900
     10 C13         2.4730   -1.8150    3.9410 c3        1 DS4     -0.067900
     11 C14         2.7220   -3.0100    3.0600 c3        1 DS4     -0.099600
     12 C20         2.8120    2.0240    3.9510 c3        1 DS4     -0.099600
     13 C26         4.6570    0.5060    1.8530 ca        1 DS4     -0.122000
     14 C27         5.9920    0.6280    1.4590 ca        1 DS4     -0.052300
     15 C28         6.9790   -0.1390    2.1070 ca        1 DS4     -0.115800
     16 C29         6.6020   -1.0060    3.1370 ca        1 DS4     -0.108000
     17 C30         5.2670   -1.1230    3.5160 ca        1 DS4     -0.133000
     18 C34         1.7390   -1.1750   -1.5300 c3        1 DS4     -0.058800
     19 C9          6.3670    1.5650    0.3740 c3        1 DS4     -0.060800
     20 C8          8.3510   -0.1030    1.6230 ce        1 DS4     -0.015200
     21 C43         9.4780    0.3430    2.1830 c2        1 DS4     -0.213200
     22 C44         9.7430    1.0020    3.4930 c3        1 DS4      0.162000
     23 O47        11.1100    1.3730    3.4570 oh        1 DS4     -0.563800
     24 C7          8.9110    2.3380    3.7220 c3        1 DS4      0.605400
     25 F5          7.6700    2.1890    4.2690 f         1 DS4     -0.222467
     26 C15         9.5680    0.0240    4.7370 c3        1 DS4      0.605400
     27 F2          9.7650   -1.2970    4.4430 f         1 DS4     -0.222467
     28 F3         10.4900    0.3010    5.7200 f         1 DS4     -0.222467
     29 F1          8.3610    0.0750    5.3740 f         1 DS4     -0.222467
     30 F6          9.5710    3.1880    4.5800 f         1 DS4     -0.222467
     31 F4          8.7290    3.0750    2.5850 f         1 DS4     -0.222467
     32 C50        -1.2880   -0.9230   -1.9090 ca        1 DS4     -0.136000
     33 C51        -0.8860    0.1640   -1.1210 cp        1 DS4     -0.069000
     34 C52        -1.4330    1.4260   -1.3690 ca        1 DS4     -0.166000
     35 C53        -2.3680    1.5960   -2.4050 ca        1 DS4      0.087900
     36 C54        -2.7740    0.5040   -3.2080 ca        1 DS4     -0.026300
     37 C55        -2.2160   -0.7520   -2.9300 ca        1 DS4     -0.112000
     38 C56        -3.7660    0.6650   -4.2930 c3        1 DS4     -0.182100
     39 C57        -3.4160   -0.1270   -5.5790 c         1 DS4      0.918600
     40 O58        -3.4210   -1.3910   -5.5210 o         1 DS4     -0.836300
     41 O59        -3.1830    0.5380   -6.6230 o         1 DS4     -0.836300
     42 F60        -2.8760    2.8390   -2.6160 f         1 DS4     -0.155900
     43 H1          3.1630   -1.2660    0.7180 ha        1 DS4      0.132000
     44 H2          0.3270    0.7450    3.2950 ha        1 DS4      0.125000
     45 H3         -1.2210    0.9800    1.3890 ha        1 DS4      0.137000
     46 H4          3.3810    0.3800    5.2170 hc        1 DS4      0.039700
     47 H5          1.6160    0.4720    4.8580 hc        1 DS4      0.039700
     48 H6          1.3830   -1.7850    4.2130 hc        1 DS4      0.039700
     49 H7          3.0450   -1.9260    4.9000 hc        1 DS4      0.039700
     50 H8          3.7910   -3.0570    2.7380 hc        1 DS4      0.039033
     51 H9          2.4770   -3.9490    3.6140 hc        1 DS4      0.039033
     52 H10         2.0840   -2.9640    2.1430 hc        1 DS4      0.039033
     53 H11         3.8580    2.2020    3.6030 hc        1 DS4      0.039033
     54 H12         2.5980    2.7230    4.7960 hc        1 DS4      0.039033
     55 H13         2.1180    2.2640    3.1080 hc        1 DS4      0.039033
     56 H14         3.8890    1.1180    1.3510 ha        1 DS4      0.155000
     57 H15         7.3710   -1.5970    3.6590 ha        1 DS4      0.132000
     58 H16         5.0090   -1.8100    4.3360 ha        1 DS4      0.138000
     59 H17         1.4560   -2.2550   -1.6070 hc        1 DS4      0.049700
     60 H18         1.2400   -0.6240   -2.3670 hc        1 DS4      0.049700
     61 H19         2.8470   -1.0940   -1.6590 hc        1 DS4      0.049700
     62 H20         6.8760    1.0120   -0.4560 hc        1 DS4      0.049367
     63 H21         7.0750    2.3400    0.7640 hc        1 DS4      0.049367
     64 H22         5.4700    2.0830   -0.0460 hc        1 DS4      0.049367
     65 H23         8.4410   -0.5240    0.5970 ha        1 DS4      0.142000
     66 H24        10.4190    0.2440    1.6010 ha        1 DS4      0.161000
     67 H25        11.3310    1.8190    4.2910 ho        1 DS4      0.436000
     68 H27        -1.1330    2.2930   -0.7640 ha        1 DS4      0.129000
     69 H28        -2.5220   -1.6010   -3.5760 ha        1 DS4      0.202000
     70 H29        -3.8790    1.7470   -4.5610 hc        1 DS4      0.049200
     71 H30        -4.7580    0.2850   -3.9320 hc        1 DS4      0.049200
     72 H26        -0.8660   -1.9200   -1.7170 ha        1 DS4      0.124000
@<TRIPOS>BOND
     1    1    2 ar  
     2    1    6 ar  
     3    1   33 1   
     4    2    3 ar  
     5    2   18 1   
     6    3    4 ar  
     7    3   43 1   
     8    4    5 ar  
     9    4    7 1   
    10    5    6 ar  
    11    5   44 1   
    12    6   45 1   
    13    7    8 1   
    14    7    9 1   
    15    7   10 1   
    16    8   13 ar  
    17    8   17 ar  
    18    9   12 1   
    19    9   46 1   
    20    9   47 1   
    21   10   11 1   
    22   10   48 1   
    23   10   49 1   
    24   11   50 1   
    25   11   51 1   
    26   11   52 1   
    27   12   53 1   
    28   12   54 1   
    29   12   55 1   
    30   13   14 ar  
    31   13   56 1   
    32   14   15 ar  
    33   14   19 1   
    34   15   16 ar  
    35   15   20 1   
    36   16   17 ar  
    37   16   57 1   
    38   17   58 1   
    39   18   59 1   
    40   18   60 1   
    41   18   61 1   
    42   19   62 1   
    43   19   63 1   
    44   19   64 1   
    45   20   21 2   
    46   20   65 1   
    47   21   22 1   
    48   21   66 1   
    49   22   23 1   
    50   22   24 1   
    51   22   26 1   
    52   23   67 1   
    53   24   25 1   
    54   24   30 1   
    55   24   31 1   
    56   26   27 1   
    57   26   28 1   
    58   26   29 1   
    59   32   33 ar  
    60   32   37 ar  
    61   32   72 1   
    62   33   34 ar  
    63   34   35 ar  
    64   34   68 1   
    65   35   36 ar  
    66   35   42 1   
    67   36   37 ar  
    68   36   38 1   
    69   37   69 1   
    70   38   39 1   
    71   38   70 1   
    72   38   71 1   
    73   39   40 1   
    74   39   41 1   
@<TRIPOS>SUBSTRUCTURE
     1 DS4         1 TEMP              0 ****  ****    0 ROOT
