@<TRIPOS>MOLECULE
molecule
   71    72     1     0     0
SMALL
bcc


@<TRIPOS>ATOM
      1 C1           0.0000     0.0000     0.0000 ca         1 DS5       0.159100
      2 O1          -0.5630    -6.7110     9.4380 oh         1 DS5      -0.532800
      3 C2           1.3870     0.0000     0.0000 ca         1 DS5      -0.122300
      4 O2          -0.6800    -0.0010    -1.1770 os         1 DS5      -0.328900
      5 C3           2.0760     0.0000     1.1970 ca         1 DS5      -0.099000
      6 C4           1.3850     0.0010     2.3950 ca         1 DS5      -0.134300
      7 C5           0.0030     0.0000     2.3970 ca         1 DS5      -0.099000
      8 C6          -0.6920    -0.0050     1.2020 ca         1 DS5      -0.221000
      9 C7           2.1390     0.0010     3.6990 c3         1 DS5       0.037600
     10 C8           1.6460    -1.1290     4.5650 ca         1 DS5      -0.008300
     11 C9           0.8150    -2.0960     4.0280 ca         1 DS5      -0.127000
     12 C10          0.3600    -3.1340     4.8160 ca         1 DS5      -0.047300
     13 C11         -0.5450    -4.1860     4.2290 c3         1 DS5      -0.052800
     14 C12          0.7400    -3.2070     6.1570 ca         1 DS5      -0.020000
     15 C13          0.2720    -4.2810     6.9790 cg         1 DS5      -0.024000
     16 C14         -0.1070    -5.1510     7.6700 c1         1 DS5      -0.168100
     17 C15         -1.0050    -6.5600     7.9530 c3         1 DS5      -0.023100
     18 C16         -0.7950    -7.6350     7.0290 c3         1 DS5       0.703400
     19 C17         -2.2830    -6.3480     8.0310 c3         1 DS5       0.703400
     20 C18          1.5790    -2.2290     6.6910 ca         1 DS5      -0.128000
     21 C20          3.6330    -0.1810     3.4250 c3         1 DS5      -0.070900
     22 C26         -2.6920    -0.0020    -2.5150 c3         1 DS5       0.145100
     23 C27         -4.2150     0.1240    -2.4360 c3         1 DS5      -0.090400
     24 C28         -4.7910     0.2480    -3.8480 c3         1 DS5      -0.174400
     25 C29         -6.2910     0.3730    -3.7710 c          1 DS5       0.891600
     26 C22          1.9110     1.3320     4.4200 c3         1 DS5      -0.070900
     27 C21          3.8800    -1.5790     2.8560 c3         1 DS5      -0.098100
     28 C23          0.4390     1.4510     4.8190 c3         1 DS5      -0.098100
     29 C19          2.0320    -1.1990     5.8920 ca         1 DS5      -0.148000
     30 C24          2.1420    -0.0010    -1.3040 c3         1 DS5      -0.032800
     31 C25         -2.1070    -0.0010    -1.1010 c3         1 DS5       0.109400
     32 F1          -1.0310    -8.7390     7.8760 f          1 DS5      -0.203133
     33 F2          -1.4690    -7.4430     6.2520 f          1 DS5      -0.203133
     34 F3           0.5250    -7.5620     7.0880 f          1 DS5      -0.203133
     35 F4          -3.0160    -5.7520     6.9260 f          1 DS5      -0.203133
     36 F5          -2.9560    -7.4210     8.7260 f          1 DS5      -0.203133
     37 F6          -2.7560    -5.2480     9.0970 f          1 DS5      -0.203133
     38 O3          -2.3500    -1.2240    -3.1710 oh         1 DS5      -0.602800
     39 O5          -6.8430     0.3630    -2.6950 o          1 DS5      -0.853800
     40 O4          -7.0140     0.4940    -4.8950 o          1 DS5      -0.853800
     41 H1           0.3770    -6.7790     9.4810 ho         1 DS5       0.425000
     42 H2           3.1590     0.0470     1.1990 ha         1 DS5       0.137000
     43 H3          -0.5380    -0.0030     3.3360 ha         1 DS5       0.143000
     44 H4          -1.7750     0.0210     1.2040 ha         1 DS5       0.148000
     45 H5           0.5720    -2.0740     2.9730 ha         1 DS5       0.166000
     46 H6          -0.0530    -5.1500     4.2700 hc         1 DS5       0.048033
     47 H7          -1.4670    -4.2270     4.7970 hc         1 DS5       0.048033
     48 H8          -0.7680    -3.9380     3.1990 hc         1 DS5       0.048033
     49 H9           1.7980    -2.2720     7.7520 ha         1 DS5       0.134000
     50 H10          4.1960     0.0510     4.3210 hc         1 DS5       0.044450
     51 H11          3.9370     0.4840     2.6260 hc         1 DS5       0.044450
     52 H12         -2.2890     0.8340    -3.0730 h1         1 DS5       0.034700
     53 H13         -4.4820     0.7680    -1.6060 hc         1 DS5       0.065700
     54 H14         -4.6510    -0.8560    -2.2860 hc         1 DS5       0.065700
     55 H15         -4.3360     1.0940    -4.3500 hc         1 DS5       0.031200
     56 H16         -4.5810    -0.6570    -4.4050 hc         1 DS5       0.031200
     57 H17          2.6210     1.4290     5.2330 hc         1 DS5       0.044450
     58 H18          2.0490     2.1490     3.7220 hc         1 DS5       0.044450
     59 H19          3.0070    -1.9030     2.3030 hc         1 DS5       0.038367
     60 H20          4.0710    -2.2710     3.6670 hc         1 DS5       0.038367
     61 H21          4.7370    -1.5540     2.1940 hc         1 DS5       0.038367
     62 H22          0.3670     1.8780     5.8110 hc         1 DS5       0.038367
     63 H23         -0.0760     2.0900     4.1120 hc         1 DS5       0.038367
     64 H24         -0.0160     0.4680     4.8150 hc         1 DS5       0.038367
     65 H25          2.8020    -0.9220     6.6010 ha         1 DS5       0.151000
     66 H26          1.8040     0.8250    -1.9180 hc         1 DS5       0.041367
     67 H27          3.2020     0.1040    -1.1080 hc         1 DS5       0.041367
     68 H28          1.9620    -0.9340    -1.8250 hc         1 DS5       0.041367
     69 H29         -2.4360     0.8260    -0.4840 h1         1 DS5       0.047200
     70 H30         -2.4450    -0.9330    -0.6660 h1         1 DS5       0.047200
     71 H31         -1.7930    -1.0380    -3.9100 ho         1 DS5       0.396000
@<TRIPOS>BOND
     1    28    26 1
     2    32    18 1
     3    33    18 1
     4    26     9 1
     5    18    34 1
     6    18    17 1
     7    29    20 ar
     8    29    10 ar
     9    20    14 ar
    10     7     8 ar
    11     7     6 ar
    12     8     1 ar
    13    31     4 1
    14    31    22 1
    15     6     9 1
    16     6     5 ar
    17     9    10 1
    18     9    21 1
    19    10    11 ar
    20    14    15 1
    21    14    12 ar
    22     1     4 1
    23     1     3 ar
    24    15    16 3
    25    16    17 1
    26    23    22 1
    27    23    24 1
    28    17     2 1
    29    17    19 1
    30     5     3 ar
    31    22    38 1
    32    36    19 1
    33     3    30 1
    34    11    12 ar
    35    12    13 1
    36    24    25 1
    37    21    27 1
    38    19    35 1
    39    19    37 1
    40    25    39 1
    41    25    40 1
    42     2    41 1
    43     5    42 1
    44     7    43 1
    45     8    44 1
    46    11    45 1
    47    13    46 1
    48    13    47 1
    49    13    48 1
    50    20    49 1
    51    21    50 1
    52    21    51 1
    53    22    52 1
    54    23    53 1
    55    23    54 1
    56    24    55 1
    57    24    56 1
    58    26    57 1
    59    26    58 1
    60    27    59 1
    61    27    60 1
    62    27    61 1
    63    28    62 1
    64    28    63 1
    65    28    64 1
    66    29    65 1
    67    30    66 1
    68    30    67 1
    69    30    68 1
    70    31    69 1
    71    31    70 1
    72    38    71 1
@<TRIPOS>SUBSTRUCTURE
     1 DS5         1 TEMP              0 ****  ****    0 ROOT
