@<TRIPOS>MOLECULE
DS5
   71    72     1     0     0
SMALL
bcc


@<TRIPOS>ATOM
      1 C1         -0.2430    0.0310   -0.0490 ca        1 DS5      0.149100
      2 O1         -1.8250   -6.7690    8.4900 oh        1 DS5     -0.553800
      3 C2          1.1400    0.3360   -0.0350 ca        1 DS5     -0.110300
      4 O2         -0.8490    0.1060   -1.2790 os        1 DS5     -0.318900
      5 C3          1.8290    0.2830    1.1740 ca        1 DS5     -0.101000
      6 C4          1.1920   -0.0750    2.3700 ca        1 DS5     -0.125300
      7 C5         -0.1800   -0.3520    2.3340 ca        1 DS5     -0.099000
      8 C6         -0.8970   -0.3070    1.1420 ca        1 DS5     -0.208000
      9 C7          1.9350   -0.0820    3.6830 c3        1 DS5      0.049600
     10 C8          1.4250   -1.1530    4.6210 ca        1 DS5     -0.020300
     11 C9          0.9770   -2.3790    4.1120 ca        1 DS5     -0.136000
     12 C10         0.5450   -3.4100    4.9510 ca        1 DS5     -0.028300
     13 C11         0.0890   -4.6910    4.3650 c3        1 DS5     -0.064800
     14 C12         0.5680   -3.2130    6.3470 ca        1 DS5     -0.043000
     15 C13         0.1380   -4.2190    7.2310 cg        1 DS5      0.065000
     16 C14        -0.2310   -5.0620    8.0010 c1        1 DS5     -0.274100
     17 C15        -0.6680   -6.0790    8.9120 c3        1 DS5      0.216900
     18 C16         0.4270   -7.2220    9.0710 c3        1 DS5      0.630900
     19 C17        -0.9980   -5.4360   10.3340 c3        1 DS5      0.630900
     20 C18         1.0310   -1.9920    6.8640 ca        1 DS5     -0.087000
     21 C20         3.4480   -0.3380    3.5110 c3        1 DS5     -0.068900
     22 C26        -2.6500   -0.1850   -2.7980 c3        1 DS5      0.135100
     23 C27        -4.1220    0.1930   -2.9090 c3        1 DS5     -0.103400
     24 C28        -4.5520    0.4290   -4.3350 c3        1 DS5     -0.207400
     25 C29        -5.9460    1.0890   -4.3890 c         1 DS5      0.912600
     26 C22         1.8080    1.3340    4.2840 c3        1 DS5     -0.068900
     27 C21         3.7900   -1.6310    2.8200 c3        1 DS5     -0.100100
     28 C23         0.4070    1.7300    4.6680 c3        1 DS5     -0.100100
     29 C19         1.4570   -0.9800    6.0120 ca        1 DS5     -0.146000
     30 C24         1.8210    0.7100   -1.2940 c3        1 DS5     -0.041800
     31 C25        -2.2380   -0.2630   -1.3230 c3        1 DS5      0.120400
     32 F1          1.5920   -6.7870    9.6400 f         1 DS5     -0.219633
     33 F2          0.0100   -8.2640    9.8530 f         1 DS5     -0.219633
     34 F3          0.7900   -7.7890    7.8810 f         1 DS5     -0.219633
     35 F4         -1.1750   -6.3600   11.3270 f         1 DS5     -0.219633
     36 F5         -0.0520   -4.5740   10.8120 f         1 DS5     -0.219633
     37 F6         -2.1670   -4.7200   10.3040 f         1 DS5     -0.219633
     38 O3         -2.3710   -1.4670   -3.3530 oh        1 DS5     -0.625800
     39 O5         -6.2320    1.9570   -3.5150 o         1 DS5     -0.843800
     40 O4         -6.7200    0.7330   -5.3210 o         1 DS5     -0.843800
     41 H1         -2.4550   -6.1120    8.1550 ho        1 DS5      0.444000
     42 H2          2.9010    0.5340    1.1710 ha        1 DS5      0.128000
     43 H3         -0.7110   -0.6040    3.2660 ha        1 DS5      0.132000
     44 H4         -1.9730   -0.5310    1.1490 ha        1 DS5      0.145000
     45 H5          0.9650   -2.5370    3.0190 ha        1 DS5      0.159000
     46 H6         -0.2890   -4.5440    3.3240 hc        1 DS5      0.053700
     47 H7          0.9410   -5.4170    4.3290 hc        1 DS5      0.053700
     48 H8         -0.7290   -5.1450    4.9780 hc        1 DS5      0.053700
     49 H9          1.0580   -1.8390    7.9540 ha        1 DS5      0.140000
     50 H10         3.8970    0.5220    2.9470 hc        1 DS5      0.040450
     51 H11         3.9120   -0.3350    4.5340 hc        1 DS5      0.040450
     52 H12        -2.0070    0.5730   -3.3300 h1        1 DS5      0.053700
     53 H13        -4.7460   -0.6190   -2.4550 hc        1 DS5      0.062200
     54 H14        -4.3150    1.1350   -2.3270 hc        1 DS5      0.062200
     55 H15        -3.8320    1.1150   -4.8480 hc        1 DS5      0.023200
     56 H16        -4.5840   -0.5310   -4.9090 hc        1 DS5      0.023200
     57 H17         2.4830    1.4170    5.1760 hc        1 DS5      0.040450
     58 H18         2.1930    2.0580    3.5150 hc        1 DS5      0.040450
     59 H19         3.4470   -2.5060    3.4240 hc        1 DS5      0.039367
     60 H20         4.8960   -1.7080    2.6840 hc        1 DS5      0.039367
     61 H21         3.3030   -1.6900    1.8160 hc        1 DS5      0.039367
     62 H22         0.4130    2.7490    5.1270 hc        1 DS5      0.039367
     63 H23        -0.0280    1.0120    5.4040 hc        1 DS5      0.039367
     64 H24        -0.2570    1.7530    3.7680 hc        1 DS5      0.039367
     65 H25         1.8210   -0.0380    6.4490 ha        1 DS5      0.142000
     66 H26         2.9210    0.8300   -1.1450 hc        1 DS5      0.046367
     67 H27         1.6420   -0.0750   -2.0730 hc        1 DS5      0.046367
     68 H28         1.4010    1.6720   -1.6830 hc        1 DS5      0.046367
     69 H29        -2.3620   -1.3060   -0.9330 h1        1 DS5      0.051200
     70 H30        -2.8280    0.4640   -0.7080 h1        1 DS5      0.051200
     71 H31        -2.9600   -1.5760   -4.1100 ho        1 DS5      0.414000
@<TRIPOS>BOND
     1    1    3 ar  
     2    1    4 1   
     3    1    8 ar  
     4    2   17 1   
     5    2   41 1   
     6    3    5 ar  
     7    3   30 1   
     8    4   31 1   
     9    5    6 ar  
    10    5   42 1   
    11    6    7 ar  
    12    6    9 1   
    13    7    8 ar  
    14    7   43 1   
    15    8   44 1   
    16    9   10 1   
    17    9   21 1   
    18    9   26 1   
    19   10   11 ar  
    20   10   29 ar  
    21   11   12 ar  
    22   11   45 1   
    23   12   13 1   
    24   12   14 ar  
    25   13   46 1   
    26   13   47 1   
    27   13   48 1   
    28   14   15 1   
    29   14   20 ar  
    30   15   16 3   
    31   16   17 1   
    32   17   18 1   
    33   17   19 1   
    34   18   32 1   
    35   18   33 1   
    36   18   34 1   
    37   19   35 1   
    38   19   36 1   
    39   19   37 1   
    40   20   29 ar  
    41   20   49 1   
    42   21   27 1   
    43   21   50 1   
    44   21   51 1   
    45   22   23 1   
    46   22   31 1   
    47   22   38 1   
    48   22   52 1   
    49   23   24 1   
    50   23   53 1   
    51   23   54 1   
    52   24   25 1   
    53   24   55 1   
    54   24   56 1   
    55   25   39 1   
    56   25   40 1   
    57   26   28 1   
    58   26   57 1   
    59   26   58 1   
    60   27   59 1   
    61   27   60 1   
    62   27   61 1   
    63   28   62 1   
    64   28   63 1   
    65   28   64 1   
    66   29   65 1   
    67   30   66 1   
    68   30   67 1   
    69   30   68 1   
    70   31   69 1   
    71   31   70 1   
    72   38   71 1   
@<TRIPOS>SUBSTRUCTURE
     1 DS5         1 TEMP              0 ****  ****    0 ROOT
