@<TRIPOS>MOLECULE
DS6
   81    82     1     0     0
SMALL
bcc


@<TRIPOS>ATOM
      1 C1         -0.1870    0.2430   -0.1670 ca        1 DS6      0.145100
      2 O1         -2.0540    1.8830   -3.3800 oh        1 DS6     -0.618800
      3 C2          1.1210   -0.2580   -0.2590 ca        1 DS6     -0.188000
      4 O2          1.8990   -0.9390   -3.6820 o         1 DS6     -0.851300
      5 C3          1.8520   -0.4660    0.9050 ca        1 DS6     -0.099000
      6 C4          1.3210   -0.1690    2.1690 ca        1 DS6     -0.125300
      7 C5          0.0060    0.3070    2.2410 ca        1 DS6     -0.111000
      8 C6         -0.7580    0.5220    1.0930 ca        1 DS6     -0.130300
      9 C7          7.8190    0.5810    2.7090 c3        1 DS6     -0.034100
     10 C8          9.8950    3.2090    5.6470 c3        1 DS6     -0.085767
     11 C9          5.8090    2.1380    1.1990 c3        1 DS6     -0.055800
     12 C10         2.1260   -0.4370    3.4170 c3        1 DS6      0.055600
     13 C11         3.6030   -0.1910    3.2150 ca        1 DS6     -0.054300
     14 C12         1.6930    0.4510    4.6040 c3        1 DS6     -0.066400
     15 C13         1.8280   -1.8900    3.8420 c3        1 DS6     -0.066400
     16 C14         2.3250   -2.9360    2.8790 c3        1 DS6     -0.098600
     17 C15         9.7930    4.3230    3.4210 c3        1 DS6     -0.085767
     18 C16         1.5910   -0.2980   -4.7340 c         1 DS6      0.904600
     19 C17         0.1620   -0.4480   -5.2880 c3        1 DS6     -0.202400
     20 C18        11.8610    3.1630    4.1320 c3        1 DS6     -0.085767
     21 C20         1.7840    1.9310    4.3400 c3        1 DS6     -0.098600
     22 C26         4.0430    0.8150    2.3440 ca        1 DS6     -0.118000
     23 C27         5.4030    1.0870    2.1620 ca        1 DS6     -0.068300
     24 C28         6.3580    0.3480    2.8810 ca        1 DS6     -0.091300
     25 C29         5.9220   -0.6390    3.7700 ca        1 DS6     -0.132000
     26 C30         4.5660   -0.9050    3.9390 ca        1 DS6     -0.137000
     27 C34        -2.1470    1.0250    1.1860 c3        1 DS6     -0.032800
     28 C43         8.3430    1.5940    3.7110 c3        1 DS6     -0.116400
     29 C44         9.8440    1.8200    3.5470 c3        1 DS6      0.148100
     30 O47        10.5800    0.7600    4.1560 oh        1 DS6     -0.608800
     31 C48        10.3380    3.1320    4.1960 c3        1 DS6     -0.047000
     32 O62        -0.9970    0.4800   -1.2560 os        1 DS6     -0.362900
     33 C63        -0.3430    0.3430   -2.5320 c3        1 DS6      0.069400
     34 C64        -1.3830    0.6470   -3.6070 c3        1 DS6      0.147100
     35 C67        -0.6990    0.7530   -4.9690 c3        1 DS6     -0.058400
     36 O71         2.3960    0.4540   -5.3500 o         1 DS6     -0.851300
     37 HO1        -2.2510    1.9240   -2.4360 ho        1 DS6      0.402000
     38 H2          1.5760   -0.4930   -1.2430 ha        1 DS6      0.206000
     39 H3          2.8720   -0.8750    0.8230 ha        1 DS6      0.141000
     40 H5         -0.4550    0.5220    3.2170 ha        1 DS6      0.120000
     41 H7          8.3670   -0.3920    2.8370 hc        1 DS6      0.044200
     42 H7A         8.0300    0.9410    1.6660 hc        1 DS6      0.044200
     43 H8         10.2160    2.2860    6.1880 hc        1 DS6      0.036256
     44 H8A         8.7840    3.2970    5.7140 hc        1 DS6      0.036256
     45 H8B        10.3530    4.0980    6.1420 hc        1 DS6      0.036256
     46 H9          4.9280    2.7340    0.8550 hc        1 DS6      0.046033
     47 H9A         6.5480    2.8370    1.6650 hc        1 DS6      0.046033
     48 H9B         6.2840    1.6710    0.2990 hc        1 DS6      0.046033
     49 H12         2.3500    0.1940    5.4780 hc        1 DS6      0.033700
     50 H12A        0.6440    0.1830    4.8960 hc        1 DS6      0.033700
     51 H13         2.2660   -2.0740    4.8590 hc        1 DS6      0.033700
     52 H13A        0.7140   -1.9880    3.9440 hc        1 DS6      0.033700
     53 H14         2.0910   -3.9550    3.2700 hc        1 DS6      0.038367
     54 H14A        3.4300   -2.8550    2.7350 hc        1 DS6      0.038367
     55 H14B        1.8350   -2.8170    1.8810 hc        1 DS6      0.038367
     56 H15        10.0400    4.2300    2.3370 hc        1 DS6      0.036256
     57 H15A        8.6850    4.4030    3.5300 hc        1 DS6      0.036256
     58 H15B       10.2500    5.2650    3.8100 hc        1 DS6      0.036256
     59 H17        -0.3000   -1.3830   -4.8830 hc        1 DS6      0.027700
     60 H17A        0.2390   -0.5520   -6.4010 hc        1 DS6      0.027700
     61 H18        12.2860    2.3020    4.7020 hc        1 DS6      0.036256
     62 H18A       12.2450    4.1140    4.5710 hc        1 DS6      0.036256
     63 H18B       12.2030    3.0910    3.0720 hc        1 DS6      0.036256
     64 H20         1.4280    2.5000    5.2320 hc        1 DS6      0.038367
     65 H20A        2.8400    2.2290    4.1280 hc        1 DS6      0.038367
     66 H20B        1.1590    2.2190    3.4600 hc        1 DS6      0.038367
     67 H26         3.2990    1.4050    1.7820 ha        1 DS6      0.153000
     68 H29         6.6630   -1.2170    4.3420 ha        1 DS6      0.120000
     69 H30         4.2630   -1.6880    4.6500 ha        1 DS6      0.128000
     70 H34        -2.3600    1.4520    2.1960 hc        1 DS6      0.036033
     71 H34A       -2.8680    0.1920    0.9910 hc        1 DS6      0.036033
     72 H34B       -2.3220    1.8160    0.4140 hc        1 DS6      0.036033
     73 H43         8.1370    1.2360    4.7530 hc        1 DS6      0.059200
     74 H43A        7.7980    2.5630    3.5710 hc        1 DS6      0.059200
     75 H44        10.1040    1.8480    2.4490 h1        1 DS6      0.033700
     76 HO47       10.1980   -0.0640    3.8310 ho        1 DS6      0.400000
     77 H63         0.0370   -0.7100   -2.6570 h1        1 DS6      0.097200
     78 H63A        0.5170    1.0600   -2.5920 h1        1 DS6      0.097200
     79 H64        -2.1570   -0.1720   -3.6160 h1        1 DS6      0.023700
     80 H67        -1.5020    0.8750   -5.7430 hc        1 DS6      0.044200
     81 H67A       -0.0670    1.6800   -4.9910 hc        1 DS6      0.044200
@<TRIPOS>BOND
     1    1    3 ar  
     2    1    8 ar  
     3    1   32 1   
     4    2   34 1   
     5    2   37 1   
     6    3    5 ar  
     7    3   38 1   
     8    4   18 1   
     9    5    6 ar  
    10    5   39 1   
    11    6    7 ar  
    12    6   12 1   
    13    7    8 ar  
    14    7   40 1   
    15    8   27 1   
    16    9   24 1   
    17    9   28 1   
    18    9   41 1   
    19    9   42 1   
    20   10   31 1   
    21   10   43 1   
    22   10   44 1   
    23   10   45 1   
    24   11   23 1   
    25   11   46 1   
    26   11   47 1   
    27   11   48 1   
    28   12   13 1   
    29   12   14 1   
    30   12   15 1   
    31   13   22 ar  
    32   13   26 ar  
    33   14   21 1   
    34   14   49 1   
    35   14   50 1   
    36   15   16 1   
    37   15   51 1   
    38   15   52 1   
    39   16   53 1   
    40   16   54 1   
    41   16   55 1   
    42   17   31 1   
    43   17   56 1   
    44   17   57 1   
    45   17   58 1   
    46   18   19 1   
    47   18   36 1   
    48   19   35 1   
    49   19   59 1   
    50   19   60 1   
    51   20   31 1   
    52   20   61 1   
    53   20   62 1   
    54   20   63 1   
    55   21   64 1   
    56   21   65 1   
    57   21   66 1   
    58   22   23 ar  
    59   22   67 1   
    60   23   24 ar  
    61   24   25 ar  
    62   25   26 ar  
    63   25   68 1   
    64   26   69 1   
    65   27   70 1   
    66   27   71 1   
    67   27   72 1   
    68   28   29 1   
    69   28   73 1   
    70   28   74 1   
    71   29   30 1   
    72   29   31 1   
    73   29   75 1   
    74   30   76 1   
    75   32   33 1   
    76   33   34 1   
    77   33   77 1   
    78   33   78 1   
    79   34   35 1   
    80   34   79 1   
    81   35   80 1   
    82   35   81 1   
@<TRIPOS>SUBSTRUCTURE
     1 DS6         1 TEMP              0 ****  ****    0 ROOT
