@<TRIPOS>MOLECULE
molecule
   81    82     1     0     0
SMALL
bcc


@<TRIPOS>ATOM
      1 C1           0.0000     0.0000     0.0000 ca         1 DS6       0.154100
      2 O1          -1.5780     1.2390    -3.6130 oh         1 DS6      -0.603800
      3 C2           1.3870     0.0000     0.0000 ca         1 DS6      -0.217000
      4 O2           1.0770    -0.3290    -7.2770 o          1 DS6      -0.854300
      5 C3           2.0760     0.0000     1.1980 ca         1 DS6      -0.099000
      6 C4           1.3840     0.0000     2.3950 ca         1 DS6      -0.119300
      7 C5           0.0020     0.0000     2.3970 ca         1 DS6      -0.094000
      8 C6          -0.6930    -0.0000     1.2030 ca         1 DS6      -0.120300
      9 C7           7.7750     0.7430     2.6650 c3         1 DS6      -0.037100
     10 C8          10.2390     2.3820     5.8690 c3         1 DS6      -0.082100
     11 C9           5.8580     2.6610     1.6690 c3         1 DS6      -0.046800
     12 C10          2.1380    -0.0000     3.6990 c3         1 DS6       0.039600
     13 C11          3.6080     0.1930     3.4300 ca         1 DS6      -0.058300
     14 C12          1.6280     1.1380     4.5840 c3         1 DS6      -0.068400
     15 C13          1.9230    -1.3360     4.4130 c3         1 DS6      -0.068400
     16 C14          2.2850    -2.4840     3.4680 c3         1 DS6      -0.096600
     17 C15          9.7030     4.2230     4.2670 c3         1 DS6      -0.082100
     18 C16         -0.1290    -0.3400    -7.3340 c          1 DS6       0.893600
     19 C17         -0.9450    -0.2220    -6.0720 c3         1 DS6      -0.183400
     20 C18         11.9250     3.0860     4.1640 c3         1 DS6      -0.082100
     21 C20          1.7160     2.4590     3.8170 c3         1 DS6      -0.096600
     22 C26          4.0400     1.2890     2.7060 ca         1 DS6      -0.125000
     23 C27          5.3880     1.4670     2.4590 ca         1 DS6      -0.085300
     24 C28          6.3060     0.5490     2.9350 ca         1 DS6      -0.088300
     25 C29          5.8740    -0.5470     3.6590 ca         1 DS6      -0.134000
     26 C30          4.5260    -0.7210     3.9110 ca         1 DS6      -0.129000
     27 C34         -2.1990     0.0010     1.2070 c3         1 DS6      -0.032800
     28 C43          8.3710     1.6700     3.7270 c3         1 DS6      -0.083400
     29 C44          9.8630     1.8670     3.4530 c3         1 DS6       0.155100
     30 O47         10.5450     0.6210     3.6120 oh         1 DS6      -0.606800
     31 C48         10.4320     2.8890     4.4380 c3         1 DS6      -0.086000
     32 O62         -0.6810     0.0060    -1.1770 os         1 DS6      -0.327900
     33 C63          0.0970     0.0120    -2.3750 c3         1 DS6       0.122400
     34 C64         -0.8360     0.0180    -3.5880 c3         1 DS6       0.142100
     35 C67         -0.0080    -0.1020    -4.8690 c3         1 DS6      -0.075400
     36 O71         -0.7440    -0.4570    -8.5230 o          1 DS6      -0.854300
     37 HO1         -2.4970     1.0480    -3.6980 ho         1 DS6       0.398000
     38 H2           1.9290    -0.0000    -0.9380 ha         1 DS6       0.145000
     39 H3           3.1590     0.0000     1.1980 ha         1 DS6       0.144000
     40 H5          -0.5380    -0.0000     3.3360 ha         1 DS6       0.127000
     41 H7           8.2790    -0.2160     2.6990 hc         1 DS6       0.051200
     42 H7A          7.9070     1.1850     1.6850 hc         1 DS6       0.051200
     43 H8           9.2200     2.5700     6.1840 hc         1 DS6       0.036144
     44 H8A         10.4380     1.3180     5.9040 hc         1 DS6       0.036144
     45 H8B         10.9230     2.8990     6.5300 hc         1 DS6       0.036144
     46 H9           5.0150     3.1130     1.1610 hc         1 DS6       0.042700
     47 H9A          6.3050     3.3850     2.3400 hc         1 DS6       0.042700
     48 H9B          6.5930     2.3450     0.9380 hc         1 DS6       0.042700
     49 H12          2.2340     1.2000     5.4790 hc         1 DS6       0.038950
     50 H12A         0.5970     0.9480     4.8580 hc         1 DS6       0.038950
     51 H13          2.5540    -1.3810     5.2930 hc         1 DS6       0.038950
     52 H13A         0.8840    -1.4250     4.7080 hc         1 DS6       0.038950
     53 H14          2.8300    -3.2430     4.0150 hc         1 DS6       0.038033
     54 H14A         1.3790    -2.9140     3.0590 hc         1 DS6       0.038033
     55 H14B         2.9020    -2.1060     2.6620 hc         1 DS6       0.038033
     56 H15         10.2860     5.0150     4.7210 hc         1 DS6       0.036144
     57 H15A         9.5730     4.4310     3.2110 hc         1 DS6       0.036144
     58 H15B         8.7330     4.1680     4.7460 hc         1 DS6       0.036144
     59 H17         -1.5730     0.6590    -6.1300 hc         1 DS6       0.031200
     60 H17A        -1.5660    -1.1020    -5.9600 hc         1 DS6       0.031200
     61 H18         12.4600     2.1750     4.4060 hc         1 DS6       0.036144
     62 H18A        12.3000     3.8980     4.7740 hc         1 DS6       0.036144
     63 H18B        12.0720     3.3230     3.1170 hc         1 DS6       0.036144
     64 H20          2.6780     2.9210     4.0020 hc         1 DS6       0.038033
     65 H20A         1.6050     2.2680     2.7560 hc         1 DS6       0.038033
     66 H20B         0.9260     3.1230     4.1490 hc         1 DS6       0.038033
     67 H26          3.3200     1.9940     2.3100 ha         1 DS6       0.151000
     68 H29          6.5910    -1.2740     4.0200 ha         1 DS6       0.129000
     69 H30          4.3870    -1.4090     4.7370 ha         1 DS6       0.133000
     70 H34         -2.5620    -0.9330     0.7960 hc         1 DS6       0.040700
     71 H34A        -2.5580     0.1130     2.2230 hc         1 DS6       0.040700
     72 H34B        -2.5610     0.8250     0.6030 hc         1 DS6       0.040700
     73 H43          8.2390     1.2280     4.7070 hc         1 DS6       0.057200
     74 H43A         7.8680     2.6290     3.6920 hc         1 DS6       0.057200
     75 H44          9.9990     2.2260     2.4400 h1         1 DS6       0.031700
     76 HO47        11.1130     0.4760     2.8730 ho         1 DS6       0.399000
     77 H63          0.7220    -0.8730    -2.4040 h1         1 DS6       0.045200
     78 H63A         0.7220     0.8960    -2.3960 h1         1 DS6       0.045200
     79 H64         -1.5210    -0.8190    -3.5210 h1         1 DS6       0.033700
     80 H67          0.6120     0.7800    -4.9810 hc         1 DS6       0.057200
     81 H67A         0.6220    -0.9810    -4.8120 hc         1 DS6       0.057200
@<TRIPOS>BOND
     1     1     3 ar
     2     1     8 ar
     3     1    32 1
     4     2    34 1
     5     3     5 ar
     6     4    18 1
     7     5     6 ar
     8     6     7 ar
     9     6    12 1
    10     7     8 ar
    11     8    27 1
    12     9    24 1
    13     9    28 1
    14    10    31 1
    15    11    23 1
    16    12    13 1
    17    12    14 1
    18    12    15 1
    19    13    22 ar
    20    13    26 ar
    21    14    21 1
    22    15    16 1
    23    17    31 1
    24    18    19 1
    25    18    36 1
    26    19    35 1
    27    20    31 1
    28    22    23 ar
    29    23    24 ar
    30    24    25 ar
    31    25    26 ar
    32    28    29 1
    33    29    30 1
    34    29    31 1
    35    32    33 1
    36    33    34 1
    37    34    35 1
    38     2    37 1
    39     3    38 1
    40     5    39 1
    41     7    40 1
    42     9    41 1
    43     9    42 1
    44    10    43 1
    45    10    44 1
    46    10    45 1
    47    11    46 1
    48    11    47 1
    49    11    48 1
    50    14    49 1
    51    14    50 1
    52    15    51 1
    53    15    52 1
    54    16    53 1
    55    16    54 1
    56    16    55 1
    57    17    56 1
    58    17    57 1
    59    17    58 1
    60    19    59 1
    61    19    60 1
    62    20    61 1
    63    20    62 1
    64    20    63 1
    65    21    64 1
    66    21    65 1
    67    21    66 1
    68    22    67 1
    69    25    68 1
    70    26    69 1
    71    27    70 1
    72    27    71 1
    73    27    72 1
    74    28    73 1
    75    28    74 1
    76    29    75 1
    77    30    76 1
    78    33    77 1
    79    33    78 1
    80    34    79 1
    81    35    80 1
    82    35    81 1
@<TRIPOS>SUBSTRUCTURE
     1 DS6         1 TEMP              0 ****  ****    0 ROOT
