@<TRIPOS>MOLECULE
molecule
   21    21     1     0     0
SMALL
bcc


@<TRIPOS>ATOM
      1 C7           0.0000     0.0000     0.0000 c3         1 DS7       0.038600
      2 C4           4.9580    -0.0060     0.6230 c          1 DS7       0.913200
      3 C5           2.4080     0.0000     0.6450 cc         1 DS7      -0.112600
      4 C6           2.1980    -0.0050     2.1380 c3         1 DS7       0.003200
      5 C3           3.6250     0.0000     0.0000 cd         1 DS7      -0.166600
      6 C2           3.3210     0.0060    -1.4350 cd         1 DS7      -0.149000
      7 C1           1.9810     0.0090    -1.5390 cc         1 DS7      -0.180600
      8 O            6.0630    -0.0050    -0.1500 o          1 DS7      -0.852800
      9 O1           5.0620    -0.0090     1.8340 o          1 DS7      -0.852800
     10 N            1.4360     0.0000    -0.2880 na         1 DS7      -0.067100
     11 C            1.2040     0.0120    -2.8300 c3         1 DS7      -0.006800
     12 H9          -0.2510    -0.8780     0.5830 h1         1 DS7       0.031700
     13 H10         -0.5550    -0.0140    -0.9300 h1         1 DS7       0.031700
     14 H8          -0.2560     0.8910     0.5600 h1         1 DS7       0.031700
     15 H5           2.7340     0.8260     2.5810 hc         1 DS7       0.036367
     16 H6           2.5690    -0.9350     2.5510 hc         1 DS7       0.036367
     17 H7           1.1410     0.0900     2.3550 hc         1 DS7       0.036367
     18 H3           4.0350     0.0110    -2.2500 ha         1 DS7       0.153000
     19 H            0.5830    -0.8740    -2.8800 hc         1 DS7       0.025367
     20 H2           1.8920     0.0170    -3.6660 hc         1 DS7       0.025367
     21 H1           0.5770     0.8950    -2.8730 hc         1 DS7       0.025367
@<TRIPOS>BOND
     1    11     7 1
     2     1    10 1
     3     7    10 1
     4     7     6 2
     5    10     3 1
     6     6     5 1
     7     3     5 2
     8     3     4 1
     9     5     2 1
    10     9     2 1
    11     2     8 1
    12     1    12 1
    13     1    13 1
    14     1    14 1
    15     4    15 1
    16     4    16 1
    17     4    17 1
    18     6    18 1
    19    11    19 1
    20    11    20 1
    21    11    21 1
@<TRIPOS>SUBSTRUCTURE
     1 DS7         1 TEMP              0 ****  ****    0 ROOT
