@<TRIPOS>MOLECULE
molecule
   44    45     1     0     0
SMALL
bcc


@<TRIPOS>ATOM
      1 C1           0.0000     0.0000     0.0000 c3         1 DS8       0.144100
      2 C2           1.5310     0.0000     0.0000 c3         1 DS8       0.099100
      3 C3           2.0340     0.0000     1.4470 c3         1 DS8       0.115100
      4 C4           1.4530     1.2160     2.1780 c3         1 DS8       0.117100
      5 C5          -0.0750     1.1680     2.0940 c3         1 DS8       0.140100
      6 C6          -0.5870    -0.0880     2.8010 c3         1 DS8      -0.121100
      7 C7          -0.5100     0.0600    -1.4410 c3         1 DS8      -0.065400
      8 C8          -3.9590    -1.5950    -1.0190 c3         1 DS8       0.351900
      9 O2           2.0080     1.1670    -0.6720 oh         1 DS8      -0.590800
     10 O3           1.6110    -1.1980     2.1010 oh         1 DS8      -0.587800
     11 C9          -2.4380    -1.4510    -0.9340 c3         1 DS8      -0.108400
     12 O4           1.8560     1.1860     3.5480 oh         1 DS8      -0.595800
     13 C10         -2.0350    -0.0650    -1.4490 c3         1 DS8      -0.069700
     14 C11         -2.5570     0.1090    -2.8780 c3         1 DS8      -0.113400
     15 C12         -4.0730    -0.0960    -2.8870 c3         1 DS8       0.162100
     16 C13         -4.5960     0.0170    -4.3210 c3         1 DS8       0.149400
     17 O5          -0.4750     1.1390     0.7220 os         1 DS8      -0.407600
     18 O8          -4.3380    -2.9050    -0.5930 oh         1 DS8      -0.584800
     19 O12         -4.3820    -1.3910    -2.3690 os         1 DS8      -0.432600
     20 O13         -6.0220    -0.0580    -4.3170 oh         1 DS8      -0.599800
     21 H1          -0.3590    -0.9030     0.4780 h1         1 DS8       0.067700
     22 H2           1.8910    -0.8870    -0.5060 h1         1 DS8       0.041700
     23 H3           3.1160     0.0590     1.4540 h1         1 DS8       0.037700
     24 H4           1.8120     2.1240     1.7080 h1         1 DS8       0.061700
     25 H5          -0.4880     2.0500     2.5690 h1         1 DS8       0.079700
     26 H6          -0.1380    -0.1570     3.7840 hc         1 DS8       0.052033
     27 H7          -0.3220    -0.9630     2.2200 hc         1 DS8       0.052033
     28 H8          -1.6650    -0.0330     2.8990 hc         1 DS8       0.052033
     29 H9          -0.2230     1.0050    -1.8870 hc         1 DS8       0.057700
     30 H10         -0.0780    -0.7540    -2.0110 hc         1 DS8       0.057700
     31 H11         -4.4260    -0.8540    -0.3810 h2         1 DS8       0.021700
     32 H12          2.7640     0.9450    -1.1910 ho         1 DS8       0.399000
     33 H13          2.3550    -1.7610     2.2380 ho         1 DS8       0.399000
     34 H15         -1.9690    -2.2130    -1.5450 hc         1 DS8       0.062200
     35 H16          2.3560     1.9610     3.7450 ho         1 DS8       0.400000
     36 H17         -2.4690     0.6960    -0.8110 hc         1 DS8       0.069700
     37 H18         -2.3250     1.1080    -3.2280 hc         1 DS8       0.053200
     38 H19         -2.0890    -0.6240    -3.5240 hc         1 DS8       0.053200
     39 H20         -4.5410     0.6590    -2.2680 h1         1 DS8       0.046700
     40 H21         -4.2850     0.9640    -4.7450 h1         1 DS8       0.030200
     41 H22         -4.1930    -0.7940    -4.9170 h1         1 DS8       0.030200
     42 H23         -5.1800    -2.8670    -0.1690 ho         1 DS8       0.410000
     43 H24         -6.3490     0.1170    -5.1850 ho         1 DS8       0.400000
     44 H14         -2.1220    -1.5590     0.0960 hc         1 DS8       0.062200
@<TRIPOS>BOND
     1     6     5 1
     2     5     4 1
     3     5    17 1
     4     4    12 1
     5     4     3 1
     6    17     1 1
     7    18     8 1
     8    11     8 1
     9    11    13 1
    10     7    13 1
    11     7     1 1
    12     3    10 1
    13     3     2 1
    14    19     8 1
    15    19    15 1
    16    14    13 1
    17    14    15 1
    18     1     2 1
    19    16    15 1
    20    16    20 1
    21     2     9 1
    22     1    21 1
    23     2    22 1
    24     3    23 1
    25     4    24 1
    26     5    25 1
    27     6    26 1
    28     6    27 1
    29     6    28 1
    30     7    29 1
    31     7    30 1
    32     8    31 1
    33     9    32 1
    34    10    33 1
    35    11    44 1
    36    11    34 1
    37    12    35 1
    38    13    36 1
    39    14    37 1
    40    14    38 1
    41    15    39 1
    42    16    40 1
    43    16    41 1
    44    18    42 1
    45    20    43 1
@<TRIPOS>SUBSTRUCTURE
     1 DS8         1 TEMP              0 ****  ****    0 ROOT
