@<TRIPOS>MOLECULE
DSA
   60    64     1     0     0
SMALL
bcc


@<TRIPOS>ATOM
      1 C20          0.0000     0.0000     0.0000 ca         1 DSA      -0.080800
      2 C21          1.4070     0.0000     0.0000 ca         1 DSA      -0.254200
      3 C22          2.0960     0.0000     1.2130 ca         1 DSA       0.104100
      4 C23          1.3940    -0.0010     2.4050 ca         1 DSA       0.085100
      5 C24         -0.0030    -0.0020     2.4050 ca         1 DSA       0.094100
      6 C25         -0.6990    -0.0010     1.2180 ca         1 DSA      -0.167000
      7 C18          0.7020     0.0020    -2.1290 cc         1 DSA      -0.331300
      8 C19         -0.4150     0.0060    -1.3530 cd         1 DSA      -0.070200
      9 C16          0.7190     0.0030    -3.5980 c          1 DSA       0.640300
     10 C6           1.3280    -0.3540    -7.9640 ca         1 DSA       0.144100
     11 C7           1.0130    -0.2380    -6.6280 ca         1 DSA      -0.131000
     12 C8           2.0170    -0.2230    -5.6490 ca         1 DSA      -0.072400
     13 C11          3.2090    -0.1430    -3.6280 c3         1 DSA       0.011000
     14 C10          4.2030    -0.2850    -4.7920 c3         1 DSA       0.022600
     15 C13          5.1470     0.9170    -4.8380 c3         1 DSA       0.006900
     16 C9           3.3360    -0.3260    -6.0300 ca         1 DSA      -0.108300
     17 C26          3.8700    -1.3630     1.1070 c3         1 DSA       0.228700
     18 C27          2.1740     1.3580     4.0040 c3         1 DSA       0.236700
     19 C5           2.6610    -0.4590    -8.3620 ca         1 DSA      -0.259200
     20 C4           3.6740    -0.4450    -7.3860 ca         1 DSA      -0.060800
     21 C3           4.9070    -0.5730    -8.0690 cc         1 DSA      -0.086200
     22 C2           4.6390    -0.6490    -9.3990 cd         1 DSA      -0.315300
     23 C14          5.6420    -0.7840   -10.4640 c          1 DSA       0.746300
     24 C15          6.2420    -0.9910   -12.8060 c3         1 DSA       0.285700
     25 N17          1.8190     0.0010    -1.3150 na         1 DSA       0.335600
     26 N12          1.8880    -0.1130    -4.2580 n          1 DSA       0.012000
     27 N1           3.2740    -0.5840    -9.5900 na         1 DSA       0.411600
     28 O24         -0.6790    -0.0040     3.5860 os         1 DSA      -0.269900
     29 O16         -0.3220     0.1100    -4.2180 o          1 DSA      -0.622100
     30 O22          3.4560    -0.0000     1.2230 os         1 DSA      -0.311900
     31 O23          2.0690    -0.0040     3.5870 os         1 DSA      -0.298900
     32 O15          5.2520    -0.8560   -11.7530 os         1 DSA      -0.441900
     33 O14          6.8230    -0.8330   -10.1830 o          1 DSA      -0.574000
     34 H25         -1.7820    -0.0020     1.2220 ha         1 DSA       0.139000
     35 H19         -1.4360    -0.0670    -1.7060 ha         1 DSA       0.142000
     36 H7          -0.0250    -0.1570    -6.3300 ha         1 DSA       0.157000
     37 H111         3.3900     0.7800    -3.0910 h1         1 DSA       0.027200
     38 H112         3.2880    -0.9940    -2.9620 h1         1 DSA       0.027200
     39 H10          4.7630    -1.2080    -4.6960 hc         1 DSA       0.040700
     40 H131         5.5450     1.1020    -3.8470 hc         1 DSA       0.010367
     41 H132         4.6030     1.7910    -5.1770 hc         1 DSA       0.010367
     42 H133         5.9620     0.7110    -5.5220 hc         1 DSA       0.010367
     43 H261         3.0160    -1.9790     0.8520 h1         1 DSA      -0.003300
     44 H262         4.6210    -1.4470     0.3310 h1         1 DSA      -0.003300
     45 H263         4.2870    -1.6950     2.0500 h1         1 DSA      -0.003300
     46 H271         1.8040     2.0060     3.2180 h1         1 DSA      -0.004300
     47 H272         3.2120     1.5940     4.2080 h1         1 DSA      -0.004300
     48 H273         1.5870     1.5080     4.9020 h1         1 DSA      -0.004300
     49 H3           5.8810    -0.6890    -7.6080 ha         1 DSA       0.143000
     50 H281        -2.6550    -0.0070     4.1770 h1         1 DSA       0.003367
     51 H282        -2.3080    -0.8870     2.6820 h1         1 DSA       0.003367
     52 H283        -2.3100     0.8820     2.6870 h1         1 DSA       0.003367
     53 H151         6.9130    -0.1400   -12.7820 h1         1 DSA       0.001033
     54 H152         5.7450    -1.0310   -13.7670 h1         1 DSA       0.001033
     55 H153         6.8090    -1.9010   -12.6540 h1         1 DSA       0.001033
     56 H17          2.7690    -0.0020    -1.6290 hn         1 DSA       0.146700
     57 H1           2.8060    -0.6180   -10.4740 hn         1 DSA       0.129700
     58 H6           0.0000     0.5070    -9.0070 ho         1 DSA       0.405000
     59 O6           0.3380    -0.3660    -8.8960 oh         1 DSA      -0.501100
     60 C28         -2.0720    -0.0040     3.2630 c3         1 DSA       0.211700
@<TRIPOS>BOND
     1     1     2 ar  
     2     1     6 ar  
     3     1     8 1   
     4     2     3 ar  
     5     2    25 1   
     6     3     4 ar  
     7     3    30 1   
     8     4     5 ar  
     9     4    31 1   
    10     5     6 ar  
    11     5    28 1   
    12     6    34 1   
    13     7     8 2   
    14     7     9 1   
    15     7    25 1   
    16     8    35 1   
    17     9    26 1   
    18     9    29 2   
    19    10    11 ar  
    20    10    19 ar  
    21    10    59 1   
    22    11    12 ar  
    23    11    36 1   
    24    12    16 ar  
    25    12    26 1   
    26    13    14 1   
    27    13    26 1   
    28    13    37 1   
    29    13    38 1   
    30    14    15 1   
    31    14    16 1   
    32    14    39 1   
    33    15    40 1   
    34    15    41 1   
    35    15    42 1   
    36    16    20 ar  
    37    17    30 1   
    38    17    43 1   
    39    17    44 1   
    40    17    45 1   
    41    18    31 1   
    42    18    46 1   
    43    18    47 1   
    44    18    48 1   
    45    19    20 ar  
    46    19    27 1   
    47    20    21 1   
    48    21    22 2   
    49    21    49 1   
    50    22    23 1   
    51    22    27 1   
    52    23    32 1   
    53    23    33 2   
    54    24    32 1   
    55    24    53 1   
    56    24    54 1   
    57    24    55 1   
    58    25    56 1   
    59    27    57 1   
    60    28    60 1   
    61    50    60 1   
    62    51    60 1   
    63    52    60 1   
    64    58    59 1   
@<TRIPOS>SUBSTRUCTURE
     1 DSA         1 TEMP              0 ****  ****    0 ROOT
