@<TRIPOS>MOLECULE
molecule
   28    27     1     0     0
SMALL
bcc


@<TRIPOS>ATOM
      1 C1           0.0000     0.0000     0.0000 c          1 DSB       0.891600
      2 O2           1.2230     0.0000     0.0000 o          1 DSB      -0.862300
      3 C2          -0.8860     0.0000     1.2260 c3         1 DSB      -0.166400
      4 C3          -0.1080    -0.0940     2.5330 c3         1 DSB      -0.165900
      5 C5          -0.4230    -0.4060     5.0960 c3         1 DSB      -0.175400
      6 O1          -0.7370    -0.0060    -1.1430 o          1 DSB      -0.862300
      7 C6          -1.4870    -0.4480     6.1850 c3         1 DSB      -0.175400
      8 C8          -1.9450    -0.5980     8.7130 c3         1 DSB      -0.165900
      9 C9          -1.3310    -0.7920    10.0970 c3         1 DSB      -0.166400
     10 C10         -2.3540    -0.6850    11.2040 c          1 DSB       0.891600
     11 O11         -1.7430    -0.7940    12.4120 o          1 DSB      -0.862300
     12 O12         -3.5580    -0.5330    11.0640 o          1 DSB      -0.862300
     13 C7          -0.9210    -0.6450     7.5850 c          1 DSB       0.552100
     14 C4          -1.0370    -0.1550     3.7320 c          1 DSB       0.552100
     15 O4          -2.2470     0.0370     3.6060 o          1 DSB      -0.558100
     16 O7           0.2760    -0.8320     7.7930 o          1 DSB      -0.558100
     17 H21         -1.4680     0.9140     1.2330 hc         1 DSB       0.043200
     18 H22         -1.5640    -0.8430     1.1640 hc         1 DSB       0.043200
     19 H31          0.5330     0.7740     2.6260 hc         1 DSB       0.062450
     20 H32          0.5060    -0.9860     2.5160 hc         1 DSB       0.062450
     21 H51          0.1040    -1.3530     5.0780 hc         1 DSB       0.067200
     22 H52          0.2810     0.3870     5.3190 hc         1 DSB       0.067200
     23 H61         -2.1700    -1.2620     5.9700 hc         1 DSB       0.067200
     24 H62         -2.0410     0.4830     6.1630 hc         1 DSB       0.067200
     25 H81         -2.6790    -1.3780     8.5470 hc         1 DSB       0.062450
     26 H82         -2.4450     0.3620     8.6860 hc         1 DSB       0.062450
     27 H91         -0.8690    -1.7700    10.1420 hc         1 DSB       0.043200
     28 H92         -0.5700    -0.0370    10.2510 hc         1 DSB       0.043200
@<TRIPOS>BOND
     1     1     2 1
     2     1     3 1
     3     1     6 1
     4     3     4 1
     5     3    17 1
     6     3    18 1
     7     4    14 1
     8     4    19 1
     9     4    20 1
    10     5     7 1
    11     5    14 1
    12     5    21 1
    13     5    22 1
    14     7    13 1
    15     7    23 1
    16     7    24 1
    17     8     9 1
    18     8    13 1
    19     8    25 1
    20     8    26 1
    21     9    10 1
    22     9    27 1
    23     9    28 1
    24    10    11 1
    25    10    12 1
    26    13    16 2
    27    14    15 2
@<TRIPOS>SUBSTRUCTURE
     1 DSB         1 TEMP              0 ****  ****    0 ROOT
