@<TRIPOS>MOLECULE
DSB
   28    27     1     0     0
SMALL
bcc


@<TRIPOS>ATOM
      1 C1          0.0880    0.0850    0.0980 c         1 DSB      0.907600
      2 O2          1.1310    0.7850    0.2560 o         1 DSB     -0.857300
      3 C2         -0.8980   -0.0570    1.2700 c3        1 DSB     -0.187400
      4 C3         -0.1880   -0.0090    2.6010 c3        1 DSB     -0.166400
      5 C5         -0.6480   -0.5570    5.0280 c3        1 DSB     -0.181400
      6 O1         -0.2040   -0.4970   -0.9870 o         1 DSB     -0.857300
      7 C6         -1.4770   -0.2140    6.2430 c3        1 DSB     -0.181400
      8 C8         -1.9370   -0.7520    8.6720 c3        1 DSB     -0.166400
      9 C9         -1.2120   -0.7070    9.9950 c3        1 DSB     -0.187400
     10 C10        -2.1870   -0.8170   11.1790 c         1 DSB      0.907600
     11 O11        -1.8690   -0.2340   12.2570 o         1 DSB     -0.857300
     12 O12        -3.2480   -1.4930   11.0390 o         1 DSB     -0.857300
     13 C7         -1.0340   -0.9340    7.4900 c         1 DSB      0.566100
     14 C4         -1.1070    0.1450    3.7750 c         1 DSB      0.566100
     15 O4         -2.1550    0.8040    3.7470 o         1 DSB     -0.572100
     16 O7         -0.0100   -1.6310    7.5090 o         1 DSB     -0.572100
     17 H21        -1.6360    0.7820    1.2040 hc        1 DSB      0.033200
     18 H22        -1.4610   -1.0170    1.1630 hc        1 DSB      0.033200
     19 H31         0.5200    0.8680    2.5890 hc        1 DSB      0.071200
     20 H32         0.4360   -0.9310    2.7290 hc        1 DSB      0.071200
     21 H51        -0.6860   -1.6640    4.8460 hc        1 DSB      0.069200
     22 H52         0.4270   -0.2960    5.2170 hc        1 DSB      0.069200
     23 H61        -2.5550   -0.4590    6.0480 hc        1 DSB      0.069200
     24 H62        -1.4260    0.8910    6.4360 hc        1 DSB      0.069200
     25 H81        -2.6620   -1.6150    8.7000 hc        1 DSB      0.071200
     26 H82        -2.5450    0.1810    8.5430 hc        1 DSB      0.071200
     27 H91        -0.6280    0.2430   10.0870 hc        1 DSB      0.033200
     28 H92        -0.4900   -1.5600   10.0610 hc        1 DSB      0.033200
@<TRIPOS>BOND
     1    1    2 1   
     2    1    3 1   
     3    1    6 1   
     4    3    4 1   
     5    3   17 1   
     6    3   18 1   
     7    4   14 1   
     8    4   19 1   
     9    4   20 1   
    10    5    7 1   
    11    5   14 1   
    12    5   21 1   
    13    5   22 1   
    14    7   13 1   
    15    7   23 1   
    16    7   24 1   
    17    8    9 1   
    18    8   13 1   
    19    8   25 1   
    20    8   26 1   
    21    9   10 1   
    22    9   27 1   
    23    9   28 1   
    24   10   11 1   
    25   10   12 1   
    26   13   16 2   
    27   14   15 2   
@<TRIPOS>SUBSTRUCTURE
     1 DSB         1 TEMP              0 ****  ****    0 ROOT
