@<TRIPOS>MOLECULE
DSC
   41    40     1     0     0
SMALL
bcc


@<TRIPOS>ATOM
      1 S           0.0090    0.0080    0.0050 s6        1 DSC      1.426800
      2 O1S         1.4160   -0.1400   -0.0780 o         1 DSC     -0.753533
      3 O2S        -0.4960   -0.0720    1.3260 o         1 DSC     -0.753533
      4 O3S        -0.4920    1.1080   -0.7330 o         1 DSC     -0.753533
      5 C1         -0.6190   -1.4370   -0.8250 c3        1 DSC     -0.290600
      6 C2         -2.1190   -1.4820   -0.8510 c3        1 DSC     -0.038400
      7 C3         -2.6410   -2.7150   -1.5580 c3        1 DSC     -0.073400
      8 C4         -4.1550   -2.7440   -1.5760 c3        1 DSC     -0.079400
      9 C5         -4.6780   -3.9760   -2.2820 c3        1 DSC     -0.078400
     10 C6         -6.1910   -4.0030   -2.2990 c3        1 DSC     -0.079400
     11 C7         -6.7140   -5.2360   -3.0050 c3        1 DSC     -0.078400
     12 C8         -8.2270   -5.2620   -3.0210 c3        1 DSC     -0.079400
     13 C9         -8.7490   -6.4950   -3.7280 c3        1 DSC     -0.079400
     14 C10       -10.2620   -6.5210   -3.7440 c3        1 DSC     -0.079400
     15 C11       -10.7860   -7.7530   -4.4500 c3        1 DSC     -0.080400
     16 C12       -12.2920   -7.7840   -4.4680 c3        1 DSC     -0.092100
     17 H11        -0.2190   -1.4520   -1.8660 h1        1 DSC      0.060700
     18 H12        -0.2200   -2.3440   -0.3110 h1        1 DSC      0.060700
     19 H21        -2.5070   -1.4620    0.2030 hc        1 DSC      0.046700
     20 H22        -2.5060   -0.5620   -1.3670 hc        1 DSC      0.046700
     21 H31        -2.2540   -3.6340   -1.0450 hc        1 DSC      0.028700
     22 H32        -2.2530   -2.7370   -2.6100 hc        1 DSC      0.028700
     23 H41        -4.5410   -1.8240   -2.0890 hc        1 DSC      0.037700
     24 H42        -4.5420   -2.7210   -0.5230 hc        1 DSC      0.037700
     25 H51        -4.2910   -4.8960   -1.7690 hc        1 DSC      0.034700
     26 H52        -4.2900   -3.9980   -3.3350 hc        1 DSC      0.034700
     27 H61        -6.5770   -3.0830   -2.8120 hc        1 DSC      0.037700
     28 H62        -6.5780   -3.9810   -1.2460 hc        1 DSC      0.037700
     29 H71        -6.3270   -6.1550   -2.4920 hc        1 DSC      0.036700
     30 H72        -6.3260   -5.2580   -4.0580 hc        1 DSC      0.036700
     31 H81        -8.6140   -5.2400   -1.9680 hc        1 DSC      0.038700
     32 H82        -8.6130   -4.3430   -3.5340 hc        1 DSC      0.038700
     33 H91        -8.3620   -7.4140   -3.2150 hc        1 DSC      0.037700
     34 H92        -8.3620   -6.5170   -4.7800 hc        1 DSC      0.037700
     35 H101      -10.6490   -5.6010   -4.2570 hc        1 DSC      0.038700
     36 H102      -10.6500   -6.4990   -2.6910 hc        1 DSC      0.038700
     37 H111      -10.3960   -7.7740   -5.5020 hc        1 DSC      0.037700
     38 H112      -10.3970   -8.6720   -3.9360 hc        1 DSC      0.037700
     39 H121      -12.6990   -7.7880   -3.4280 hc        1 DSC      0.030367
     40 H122      -12.6570   -8.6990   -4.9930 hc        1 DSC      0.030367
     41 H123      -12.6980   -6.8880   -4.9980 hc        1 DSC      0.030367
@<TRIPOS>BOND
     1    1    2 1   
     2    1    3 1   
     3    1    4 1   
     4    1    5 1   
     5    5    6 1   
     6    5   17 1   
     7    5   18 1   
     8    6    7 1   
     9    6   19 1   
    10    6   20 1   
    11    7    8 1   
    12    7   21 1   
    13    7   22 1   
    14    8    9 1   
    15    8   23 1   
    16    8   24 1   
    17    9   10 1   
    18    9   25 1   
    19    9   26 1   
    20   10   11 1   
    21   10   27 1   
    22   10   28 1   
    23   11   12 1   
    24   11   29 1   
    25   11   30 1   
    26   12   13 1   
    27   12   31 1   
    28   12   32 1   
    29   13   14 1   
    30   13   33 1   
    31   13   34 1   
    32   14   15 1   
    33   14   35 1   
    34   14   36 1   
    35   15   16 1   
    36   15   37 1   
    37   15   38 1   
    38   16   39 1   
    39   16   40 1   
    40   16   41 1   
@<TRIPOS>SUBSTRUCTURE
     1 DSC         1 TEMP              0 ****  ****    0 ROOT
