@<TRIPOS>MOLECULE
molecule
   41    40     1     0     0
SMALL
bcc


@<TRIPOS>ATOM
      1 S            0.0000     0.0000     0.0000 s6         1 DSC       1.260800
      2 O1S          1.4560     0.0000     0.0000 o          1 DSC      -0.712200
      3 O2S         -0.4880     0.0000     1.3690 o          1 DSC      -0.712200
      4 O3S         -0.4880     1.1830    -0.6930 o          1 DSC      -0.712200
      5 C1          -0.5990    -1.4850    -0.8520 c3         1 DSC      -0.259600
      6 C2          -2.1290    -1.4880    -0.8550 c3         1 DSC      -0.047400
      7 C3          -2.6350    -2.7410    -1.5730 c3         1 DSC      -0.077400
      8 C4          -4.1650    -2.7450    -1.5760 c3         1 DSC      -0.083400
      9 C5          -4.6710    -3.9970    -2.2940 c3         1 DSC      -0.082400
     10 C6          -6.2010    -4.0010    -2.2970 c3         1 DSC      -0.082400
     11 C7          -6.7070    -5.2530    -3.0150 c3         1 DSC      -0.082400
     12 C8          -8.2370    -5.2570    -3.0180 c3         1 DSC      -0.082400
     13 C9          -8.7430    -6.5100    -3.7360 c3         1 DSC      -0.082400
     14 C10        -10.2720    -6.5130    -3.7390 c3         1 DSC      -0.081400
     15 C11        -10.7780    -7.7650    -4.4570 c3         1 DSC      -0.084400
     16 C12        -12.3090    -7.7690    -4.4600 c3         1 DSC      -0.092100
     17 H11         -0.2360    -1.4870    -1.8730 h1         1 DSC       0.063700
     18 H12         -0.2370    -2.3670    -0.3390 h1         1 DSC       0.063700
     19 H21         -2.4920    -1.4860     0.1660 hc         1 DSC       0.050700
     20 H22         -2.4910    -0.6060    -1.3690 hc         1 DSC       0.050700
     21 H31         -2.2720    -2.7430    -2.5940 hc         1 DSC       0.032700
     22 H32         -2.2730    -3.6230    -1.0590 hc         1 DSC       0.032700
     23 H41         -4.5280    -2.7420    -0.5550 hc         1 DSC       0.039700
     24 H42         -4.5270    -1.8630    -2.0900 hc         1 DSC       0.039700
     25 H51         -4.3080    -4.0000    -3.3150 hc         1 DSC       0.036700
     26 H52         -4.3090    -4.8790    -1.7800 hc         1 DSC       0.036700
     27 H61         -6.5630    -3.1180    -2.8110 hc         1 DSC       0.039700
     28 H62         -6.5640    -3.9980    -1.2760 hc         1 DSC       0.039700
     29 H71         -6.3440    -5.2550    -4.0360 hc         1 DSC       0.038700
     30 H72         -6.3440    -6.1350    -2.5010 hc         1 DSC       0.038700
     31 H81         -8.6000    -5.2550    -1.9970 hc         1 DSC       0.040700
     32 H82         -8.5990    -4.3750    -3.5320 hc         1 DSC       0.040700
     33 H91         -8.3810    -7.3920    -3.2220 hc         1 DSC       0.039700
     34 H92         -8.3800    -6.5120    -4.7570 hc         1 DSC       0.039700
     35 H101       -10.6350    -5.6310    -4.2530 hc         1 DSC       0.040700
     36 H102       -10.6350    -6.5110    -2.7180 hc         1 DSC       0.040700
     37 H111       -10.4160    -8.6480    -3.9430 hc         1 DSC       0.038700
     38 H112       -10.4160    -7.7680    -5.4780 hc         1 DSC       0.038700
     39 H121       -12.6670    -8.6560    -4.9690 hc         1 DSC       0.030367
     40 H122       -12.6720    -7.7670    -3.4390 hc         1 DSC       0.030367
     41 H123       -12.6710    -6.8870    -4.9740 hc         1 DSC       0.030367
@<TRIPOS>BOND
     1     1     2 1
     2     1     3 1
     3     1     4 1
     4     1     5 1
     5     5     6 1
     6     5    17 1
     7     5    18 1
     8     6     7 1
     9     6    19 1
    10     6    20 1
    11     7     8 1
    12     7    21 1
    13     7    22 1
    14     8     9 1
    15     8    23 1
    16     8    24 1
    17     9    10 1
    18     9    25 1
    19     9    26 1
    20    10    11 1
    21    10    27 1
    22    10    28 1
    23    11    12 1
    24    11    29 1
    25    11    30 1
    26    12    13 1
    27    12    31 1
    28    12    32 1
    29    13    14 1
    30    13    33 1
    31    13    34 1
    32    14    15 1
    33    14    35 1
    34    14    36 1
    35    15    16 1
    36    15    37 1
    37    15    38 1
    38    16    39 1
    39    16    40 1
    40    16    41 1
@<TRIPOS>SUBSTRUCTURE
     1 DSC         1 TEMP              0 ****  ****    0 ROOT
