@<TRIPOS>MOLECULE
molecule
   35    34     1     0     0
SMALL
bcc


@<TRIPOS>ATOM
      1 C1           0.0000     0.0000     0.0000 c          1 DSD       0.890600
      2 O1           1.3410     0.0000     0.0000 o          1 DSD      -0.853800
      3 O2          -0.6030     0.0000     1.0470 o          1 DSD      -0.853800
      4 C2          -0.7550    -0.0020    -1.3030 c3         1 DSD      -0.183400
      5 C3          -2.2590    -0.0010    -1.0220 c3         1 DSD      -0.061400
      6 C4          -3.0260    -0.0040    -2.3460 c3         1 DSD      -0.091400
      7 C5          -4.5290    -0.0030    -2.0670 c3         1 DSD      -0.072400
      8 C6          -5.2950    -0.0050    -3.3890 c3         1 DSD      -0.109400
      9 C7          -6.7980    -0.0050    -3.1090 c3         1 DSD       0.107700
     10 C8          -7.5650    -0.0070    -4.4330 c3         1 DSD       0.063500
     11 C9          -9.0690    -0.0060    -4.1530 c3         1 DSD      -0.104100
     12 N7          -7.1520     1.1910    -2.3420 ns         1 DSD      -0.604900
     13 C           -8.1900     1.1570    -1.4820 c          1 DSD       0.979600
     14 O           -8.5150     2.2570    -0.7760 o          1 DSD      -0.843300
     15 OXT         -8.8320     0.1350    -1.3440 o          1 DSD      -0.843300
     16 N8          -7.2100    -1.2050    -5.2030 nz         1 DSD      -0.806600
     17 H21         -0.4940     0.8820    -1.8730 hc         1 DSD       0.023700
     18 H22         -0.4940    -0.8870    -1.8700 hc         1 DSD       0.023700
     19 H31         -2.5200     0.8840    -0.4550 hc         1 DSD       0.052700
     20 H32         -2.5200    -0.8850    -0.4520 hc         1 DSD       0.052700
     21 H41         -2.7640     0.8800    -2.9160 hc         1 DSD       0.020700
     22 H42         -2.7650    -0.8890    -2.9130 hc         1 DSD       0.020700
     23 H51         -4.7910    -0.8860    -1.4970 hc         1 DSD       0.065700
     24 H52         -4.7910     0.8830    -1.5000 hc         1 DSD       0.065700
     25 H61         -5.0340    -0.8900    -3.9570 hc         1 DSD       0.014700
     26 H62         -5.0340     0.8790    -3.9590 hc         1 DSD       0.014700
     27 H7          -7.0590    -0.8890    -2.5400 h1         1 DSD       0.091700
     28 H8          -7.3040     0.8770    -5.0020 hx         1 DSD       0.091700
     29 H91         -9.3080    -0.8050    -3.4620 hc         1 DSD       0.075367
     30 H92         -9.3550     0.9450    -3.7180 hc         1 DSD       0.075367
     31 H93         -9.6090    -0.1560    -5.0800 hc         1 DSD       0.075367
     32 HN7         -6.6480     2.0440    -2.4840 hn         1 DSD       0.306500
     33 HN81        -6.3660    -1.0360    -5.7140 hn         1 DSD       0.437800
     34 HN82        -7.0730    -1.9750    -4.5790 hn         1 DSD       0.437800
     35 H83         -7.9490    -1.4220    -5.8430 hn         1 DSD       0.437800
@<TRIPOS>BOND
     1     1     2 1
     2     1     3 1
     3     1     4 1
     4     4     5 1
     5     4    17 1
     6     4    18 1
     7     5     6 1
     8     5    19 1
     9     5    20 1
    10     6     7 1
    11     6    21 1
    12     6    22 1
    13     7     8 1
    14     7    23 1
    15     7    24 1
    16     8     9 1
    17     8    25 1
    18     8    26 1
    19     9    10 1
    20     9    12 1
    21     9    27 1
    22    10    11 1
    23    10    16 1
    24    10    28 1
    25    11    29 1
    26    11    30 1
    27    11    31 1
    28    12    13 1
    29    12    32 1
    30    13    14 1
    31    13    15 1
    32    16    33 1
    33    16    34 1
    34    35    16 1
@<TRIPOS>SUBSTRUCTURE
     1 DSD         1 TEMP              0 ****  ****    0 ROOT
