@<TRIPOS>MOLECULE
molecule
   12    11     1     0     0
SMALL
bcc


@<TRIPOS>ATOM
      1 FAA          0.0000     0.0000     0.0000 f          1 DSF      -0.235800
      2 FAB          1.8660     0.0000     1.3180 f          1 DSF      -0.235800
      3 FAC          0.0550    -2.4590    -0.0780 f          1 DSF      -0.209300
      4 FAD          3.4160    -3.5070    -0.8750 f          1 DSF      -0.205967
      5 FAE          1.5490    -3.5070    -2.1930 f          1 DSF      -0.205967
      6 FAF          1.6050    -4.7730    -0.2920 f          1 DSF      -0.205967
      7 OAG          1.8750    -1.1670    -0.6740 os         1 DSF      -0.436600
      8 CAH          1.3990     0.0000     0.0000 c3         1 DSF       0.580700
      9 CAI          1.4530    -2.3950    -0.0770 c3         1 DSF       0.319400
     10 CAJ          2.0180    -3.5710    -0.8760 c3         1 DSF       0.611900
     11 HAH          1.7600     0.8840    -0.5110 h3         1 DSF       0.127700
     12 HAI          1.8160    -2.4440     0.9430 h2         1 DSF       0.096700
@<TRIPOS>BOND
     1     1     8 1
     2     2     8 1
     3     3     9 1
     4     4    10 1
     5     5    10 1
     6     6    10 1
     7     7     8 1
     8     7     9 1
     9     9    10 1
    10     8    11 1
    11     9    12 1
@<TRIPOS>SUBSTRUCTURE
     1 DSF         1 TEMP              0 ****  ****    0 ROOT
