@<TRIPOS>MOLECULE
DSF
   12    11     1     0     0
SMALL
bcc


@<TRIPOS>ATOM
      1 FAA         0.2780    0.1150    0.6210 f         1 DSF     -0.241800
      2 FAB         2.3780   -0.1940    1.0440 f         1 DSF     -0.241800
      3 FAC        -0.1820   -2.5770   -0.5080 f         1 DSF     -0.198300
      4 FAD         3.3890   -3.2600   -0.5840 f         1 DSF     -0.218967
      5 FAE         1.9270   -3.6340   -2.1630 f         1 DSF     -0.218967
      6 FAF         1.8230   -4.7460   -0.2890 f         1 DSF     -0.218967
      7 OAG         1.4900   -1.1750   -0.7700 os        1 DSF     -0.472600
      8 CAH         1.4950   -0.0070    0.0210 c3        1 DSF      0.595700
      9 CAI         1.1240   -2.3960   -0.1580 c3        1 DSF      0.348400
     10 CAJ         2.0630   -3.5040   -0.8120 c3        1 DSF      0.613900
     11 HAH         1.7620    0.8410   -0.6750 h3        1 DSF      0.144700
     12 HAI         1.2670   -2.4010    0.9570 h2        1 DSF      0.108700
@<TRIPOS>BOND
     1    1    8 1   
     2    2    8 1   
     3    3    9 1   
     4    4   10 1   
     5    5   10 1   
     6    6   10 1   
     7    7    8 1   
     8    7    9 1   
     9    8   11 1   
    10    9   10 1   
    11    9   12 1   
@<TRIPOS>SUBSTRUCTURE
     1 DSF         1 TEMP              0 ****  ****    0 ROOT
