@<TRIPOS>MOLECULE
molecule
   44    46     1     0     0
SMALL
bcc


@<TRIPOS>ATOM
      1 N            0.0000     0.0000     0.0000 nz         1 DSH      -0.810600
      2 N1           9.4780    -5.2770     8.8110 nb         1 DSH      -0.765000
      3 C2           9.6880    -3.9740     8.8590 ca         1 DSH       0.709900
      4 N3           9.1170    -3.1330     8.0220 nb         1 DSH      -0.744000
      5 C4           8.2920    -3.5740     7.0780 ca         1 DSH       0.451800
      6 C5           8.0350    -4.9520     6.9850 ca         1 DSH      -0.162200
      7 C6           8.6680    -5.8080     7.9010 ca         1 DSH       0.780200
      8 N6           8.4530    -7.1750     7.8580 nv         1 DSH      -1.073500
      9 N7           7.1730    -5.1280     5.9540 nc         1 DSH      -0.571100
     10 C8           6.8920    -3.9740     5.4230 cd         1 DSH       0.429700
     11 N9           7.5570    -2.9830     6.0810 na         1 DSH      -0.262000
     12 CA           1.4700     0.0000     0.0000 c3         1 DSH       0.091800
     13 CB           1.9790     0.0000     1.4420 c3         1 DSH      -0.093400
     14 SD           4.1140     0.0020     3.1520 ss         1 DSH      -0.277200
     15 CG           3.5090     0.0000     1.4430 c3         1 DSH      -0.007300
     16 C1'          7.5000    -1.5510     5.7790 c3         1 DSH       0.265800
     17 C2'          8.6740    -1.1400     4.8540 c3         1 DSH       0.098100
     18 O2'          9.8400    -0.8320     5.6180 oh         1 DSH      -0.548800
     19 C3'          8.1140     0.1270     4.1630 c3         1 DSH       0.089100
     20 O3'          8.5890     1.3050     4.8170 oh         1 DSH      -0.561800
     21 C4'          6.5860     0.0010     4.3240 c3         1 DSH       0.138100
     22 O4'          6.3280    -1.2440     4.9930 os         1 DSH      -0.413600
     23 C5'          5.9160     0.0000     2.9480 c3         1 DSH       0.010700
     24 HN          -0.3340    -0.8310     0.4470 hn         1 DSH       0.458800
     25 HNA         -0.3340     0.8030     0.4960 hn         1 DSH       0.458800
     26 HN6          9.0530    -7.7590     7.3090 hn         1 DSH       0.446800
     27 HN6A         7.7150    -7.5830     8.3970 hn         1 DSH       0.446800
     28 HA           1.8310    -0.8850    -0.5110 hx         1 DSH       0.113200
     29 HB           1.6180    -0.8850     1.9530 hc         1 DSH       0.078700
     30 HG           3.8700     0.8850     0.9320 h1         1 DSH       0.068200
     31 HGA          3.8710    -0.8840     0.9330 h1         1 DSH       0.068200
     32 H1'          7.5100    -0.9630     6.6890 h2         1 DSH       0.120700
     33 H2'          8.8760    -1.9160     4.1250 h1         1 DSH       0.059700
     34 HO2'        10.6100    -1.0460     5.1170 ho         1 DSH       0.411000
     35 H3'          8.3830     0.1340     3.1140 h1         1 DSH       0.045700
     36 HO3'         8.9750     1.8830     4.1800 ho         1 DSH       0.409000
     37 H4'          6.2120     0.8230     4.9210 h1         1 DSH       0.093700
     38 H5'          6.2180     0.8840     2.3990 h1         1 DSH       0.070200
     39 H5'A         6.2170    -0.8850     2.4000 h1         1 DSH       0.070200
     40 HAA          1.8310     0.8850    -0.5110 hx         1 DSH       0.113200
     41 HBA          1.6180     0.8840     1.9530 hc         1 DSH       0.078700
     42 H2          10.3560    -3.5820     9.6170 h5         1 DSH       0.069100
     43 HN3         -0.3340     0.0200    -0.9430 hn         1 DSH       0.458800
     44 H8           6.2260    -3.8230     4.5820 h5         1 DSH       0.080800
@<TRIPOS>BOND
     1     1    12 1
     2     2     3 ar
     3     2     7 ar
     4     3     4 ar
     5     4     5 ar
     6     5     6 ar
     7     5    11 1
     8     6     7 ar
     9     6     9 1
    10     7     8 1
    11     9    10 2
    12    10    11 1
    13    11    16 1
    14    12    13 1
    15    13    15 1
    16    14    15 1
    17    14    23 1
    18    16    17 1
    19    16    22 1
    20    17    18 1
    21    17    19 1
    22    19    20 1
    23    19    21 1
    24    21    22 1
    25    21    23 1
    26     1    24 1
    27     1    25 1
    28     3    42 1
    29     8    26 1
    30     8    27 1
    31    10    44 1
    32    12    28 1
    33    13    29 1
    34    15    30 1
    35    15    31 1
    36    16    32 1
    37    17    33 1
    38    18    34 1
    39    19    35 1
    40    20    36 1
    41    21    37 1
    42    23    38 1
    43    23    39 1
    44    12    40 1
    45    13    41 1
    46    43     1 1
@<TRIPOS>SUBSTRUCTURE
     1 DSH         1 TEMP              0 ****  ****    0 ROOT
