@<TRIPOS>MOLECULE
molecule
   48    52     1     0     0
SMALL
bcc


@<TRIPOS>ATOM
      1 C20          0.0000     0.0000     0.0000 ca         1 DSI      -0.120800
      2 C21          1.4090     0.0000     0.0000 ca         1 DSI      -0.036200
      3 C22          2.0920     0.0000     1.2120 ca         1 DSI      -0.151000
      4 C23          1.3870    -0.0000     2.3960 ca         1 DSI      -0.098000
      5 C25         -0.6930    -0.0010     1.2180 ca         1 DSI      -0.067000
      6 C24         -0.0020    -0.0000     2.3920 ca         1 DSI      -0.161000
      7 C18          0.7050     0.0000    -2.1280 cc         1 DSI      -0.153300
      8 C19         -0.4120     0.0060    -1.3540 cd         1 DSI      -0.092200
      9 N17          1.8190    -0.0000    -1.3120 na         1 DSI      -0.206400
     10 C16          0.7240     0.0000    -3.5970 c          1 DSI       0.690300
     11 O16         -0.3150     0.1060    -4.2190 o          1 DSI      -0.708100
     12 C6           1.3420    -0.3600    -7.9620 ca         1 DSI       0.110100
     13 C7           0.9180    -0.1730    -6.6650 ca         1 DSI      -0.088000
     14 O6           0.4780    -0.8380    -8.8960 oh         1 DSI      -0.528100
     15 C8           1.8090    -0.2950    -5.5880 ca         1 DSI       0.018600
     16 N12          1.5620    -0.1430    -4.2200 n          1 DSI      -0.190000
     17 C11          2.7940    -0.3620    -3.4600 c3         1 DSI      -0.020000
     18 C10          3.8660    -0.6740    -4.5160 c3         1 DSI      -0.035400
     19 C13          4.4400    -2.0740    -4.2960 c3         1 DSI      -0.086100
     20 C9           3.1280    -0.6040    -5.8350 ca         1 DSI      -0.059300
     21 C5           2.6770    -0.6750    -8.2230 ca         1 DSI      -0.055200
     22 C4           3.5770    -0.7980    -7.1500 ca         1 DSI      -0.095800
     23 C3           4.8390    -1.1230    -7.7040 cc         1 DSI      -0.106200
     24 C2           4.6950    -1.1820    -9.0560 cd         1 DSI      -0.108300
     25 N1           3.3810    -0.9130    -9.3820 na         1 DSI      -0.137400
     26 C14          5.7650    -1.4890   -10.0130 c          1 DSI       0.671300
     27 O15          5.4980    -1.5230   -11.3340 os         1 DSI      -0.447900
     28 O14          6.8930    -1.7100    -9.6150 o          1 DSI      -0.532000
     29 C15          6.5570    -1.8260   -12.2810 c3         1 DSI       0.150700
     30 H22          3.1750     0.0000     1.2250 ha         1 DSI       0.123000
     31 H23          1.9210    -0.0000     3.3390 ha         1 DSI       0.130000
     32 H25         -1.7760    -0.0010     1.2260 ha         1 DSI       0.133000
     33 H24         -0.5410    -0.0010     3.3320 ha         1 DSI       0.130000
     34 H19         -1.4350     0.0070    -1.7100 ha         1 DSI       0.174000
     35 H17          2.7700    -0.0040    -1.6250 hn         1 DSI       0.312700
     36 H6           0.3400    -1.7600    -8.7540 ho         1 DSI       0.422000
     37 H111         3.0120     0.5010    -2.8420 h1         1 DSI       0.080200
     38 H112         2.7060    -1.2550    -2.8520 h1         1 DSI       0.080200
     39 H10          4.6510     0.0720    -4.4860 hc         1 DSI       0.076700
     40 H131         4.7760    -2.1700    -3.2710 hc         1 DSI       0.045700
     41 H132         3.6750    -2.8140    -4.4960 hc         1 DSI       0.045700
     42 H133         5.2780    -2.2300    -4.9660 hc         1 DSI       0.045700
     43 H3           5.7560    -1.2890    -7.1520 ha         1 DSI       0.173000
     44 H1           3.0030    -0.8920   -10.3080 hn         1 DSI       0.324700
     45 H151         6.9600    -2.8090   -12.0690 h1         1 DSI       0.052033
     46 H152         6.1570    -1.8090   -13.2880 h1         1 DSI       0.052033
     47 H153         7.3440    -1.0870   -12.1930 h1         1 DSI       0.052033
     48 H7          -0.1060    -0.4080    -6.4000 ha         1 DSI       0.187000
@<TRIPOS>BOND
     1     1     2 ar
     2     1     5 ar
     3     1     8 1
     4     2     3 ar
     5     2     9 1
     6     3     4 ar
     7     3    30 1
     8     4     6 ar
     9     4    31 1
    10     5     6 ar
    11     5    32 1
    12     6    33 1
    13     7     8 2
    14     7     9 1
    15     7    10 1
    16     8    34 1
    17     9    35 1
    18    10    11 2
    19    10    16 1
    20    12    13 ar
    21    12    14 1
    22    12    21 ar
    23    13    15 ar
    24    13    48 1
    25    14    36 1
    26    15    16 1
    27    15    20 ar
    28    16    17 1
    29    17    18 1
    30    17    37 1
    31    17    38 1
    32    18    19 1
    33    18    20 1
    34    18    39 1
    35    19    40 1
    36    19    41 1
    37    19    42 1
    38    20    22 ar
    39    21    22 ar
    40    21    25 1
    41    22    23 1
    42    23    24 2
    43    23    43 1
    44    24    25 1
    45    24    26 1
    46    25    44 1
    47    26    27 1
    48    26    28 2
    49    27    29 1
    50    29    45 1
    51    29    46 1
    52    29    47 1
@<TRIPOS>SUBSTRUCTURE
     1 DSI         1 TEMP              0 ****  ****    0 ROOT
