@<TRIPOS>MOLECULE
molecule
   20    20     1     0     0
SMALL
bcc


@<TRIPOS>ATOM
      1 C7           0.0000     0.0000     0.0000 ca         1 DSJ       0.182100
      2 C4           1.3830    -0.0010     2.4160 ca         1 DSJ      -0.181000
      3 C5           2.0760     0.0000     1.2050 ca         1 DSJ       0.219600
      4 C6           1.3820     0.0000     0.0000 ca         1 DSJ      -0.226000
      5 C3           0.0190     0.0050     2.4300 ca         1 DSJ      -0.067000
      6 C2          -0.6970     0.0050     1.2230 ca         1 DSJ      -0.211600
      7 C1          -2.1600     0.0120     1.2370 c          1 DSJ       0.571700
      8 O           -2.7760     0.0110     0.1920 o          1 DSJ      -0.508100
      9 C           -2.9010     0.0180     2.5490 c3         1 DSJ      -0.191100
     10 O1          -0.6820    -0.0010    -1.1720 oh         1 DSJ      -0.483100
     11 N            3.4650    -0.0060     1.2030 nv         1 DSJ      -0.993200
     12 H4           1.9310    -0.0010     3.3500 ha         1 DSJ       0.139000
     13 H7           1.9240    -0.0020    -0.9380 ha         1 DSJ       0.145000
     14 H3          -0.5120     0.0070     3.3740 ha         1 DSJ       0.137000
     15 H1          -3.9680     0.0230     2.3610 hc         1 DSJ       0.059033
     16 H2          -2.6380    -0.8670     3.1170 hc         1 DSJ       0.059033
     17 H           -2.6300     0.9020     3.1130 hc         1 DSJ       0.059033
     18 H8          -0.3790    -0.7110    -1.7120 ho         1 DSJ       0.422000
     19 H5           3.9620    -0.8750     1.1980 hn         1 DSJ       0.432800
     20 H6           3.9690     0.8590     1.1980 hn         1 DSJ       0.432800
@<TRIPOS>BOND
     1     2     5 ar
     2     2     3 ar
     3     5     6 ar
     4     9     7 1
     5    11     3 1
     6     3     4 ar
     7     6     7 1
     8     6     1 ar
     9     7     8 2
    10     4     1 ar
    11     1    10 1
    12     2    12 1
    13     4    13 1
    14     5    14 1
    15     9    15 1
    16     9    16 1
    17     9    17 1
    18    10    18 1
    19    11    19 1
    20    11    20 1
@<TRIPOS>SUBSTRUCTURE
     1 DSJ         1 TEMP              0 ****  ****    0 ROOT
