@<TRIPOS>MOLECULE
DSM
   42    44     1     0     0
SMALL
bcc


@<TRIPOS>ATOM
      1 C18          0.0000     0.0000     0.0000 c3         1 DSM       0.179100
      2 N2           1.4680     0.0000     0.0000 n7         1 DSM      -0.585200
      3 C17          1.9960     0.0000     1.3710 c3         1 DSM       0.145800
      4 C16          3.5250     0.0010     1.3310 c3         1 DSM      -0.061400
      5 C15          4.0730    -0.0010     2.7590 c3         1 DSM       0.161800
      6 N1           5.5340    -0.1090     2.7210 nh         1 DSM      -0.249400
      7 C14          6.2850     1.0590     2.7870 ca         1 DSM       0.055600
      8 C1           5.8800     1.9890     3.7530 ca         1 DSM      -0.132500
      9 C2           6.5650     3.1680     3.9310 ca         1 DSM      -0.086500
     10 C3           7.6710     3.4340     3.1430 ca         1 DSM      -0.118500
     11 C4           8.0640     2.5260     2.1870 ca         1 DSM      -0.085500
     12 C13          7.3690     1.3310     1.9850 ca         1 DSM      -0.111800
     13 C5           7.8980     0.4870     0.8520 c3         1 DSM       0.034900
     14 C6           6.9750    -0.6240     0.4160 c3         1 DSM       0.034900
     15 C12          6.8000    -1.6660     1.4790 ca         1 DSM      -0.111800
     16 C11          6.1000    -1.3770     2.6250 ca         1 DSM       0.055600
     17 C7           7.3530    -2.9270     1.3120 ca         1 DSM      -0.085500
     18 C8           7.2060    -3.8740     2.3090 ca         1 DSM      -0.118500
     19 C9           6.5170    -3.5710     3.4690 ca         1 DSM      -0.086500
     20 C10          5.9580    -2.3130     3.6400 ca         1 DSM      -0.132500
     21 H181        -0.3610     0.8830     0.5130 h1         1 DSM      -0.002300
     22 H182        -0.3610    -0.8860     0.5090 h1         1 DSM      -0.002300
     23 H183        -0.3610     0.0020    -1.0210 h1         1 DSM      -0.002300
     24 HN2          1.8020     0.8090    -0.4860 hn         1 DSM       0.250800
     25 H171         1.6480     0.8840     1.8920 h1         1 DSM       0.005700
     26 H172         1.6490    -0.8850     1.8910 h1         1 DSM       0.005700
     27 H161         3.8720     0.8860     0.8120 hc         1 DSM       0.029200
     28 H162         3.8730    -0.8830     0.8100 hc         1 DSM       0.029200
     29 H151         3.6630    -0.8430     3.3020 h1         1 DSM       0.025200
     30 H152         3.7920     0.9210     3.2540 h1         1 DSM       0.025200
     31 H1           5.0140     1.7770     4.3680 ha         1 DSM       0.111500
     32 H2           6.2480     3.8770     4.6860 ha         1 DSM       0.101500
     33 H3           8.2190     4.3590     3.2720 ha         1 DSM       0.102500
     34 H4           8.9310     2.7440     1.5750 ha         1 DSM       0.103500
     35 H51          8.0580     1.1380     0.0010 hc         1 DSM       0.024200
     36 H52          8.8260     0.0360     1.1820 hc         1 DSM       0.024200
     37 H61          7.4050    -1.0990    -0.4570 hc         1 DSM       0.024200
     38 H62          6.0040    -0.1930     0.2000 hc         1 DSM       0.024200
     39 H7           7.8940    -3.1690     0.4050 ha         1 DSM       0.103500
     40 H8           7.6390    -4.8590     2.1830 ha         1 DSM       0.102500
     41 H9           6.4080    -4.3200     4.2430 ha         1 DSM       0.101500
     42 H10          5.4170    -2.0670     4.5460 ha         1 DSM       0.111500
@<TRIPOS>BOND
     1     1     2 1   
     2     1    21 1   
     3     1    22 1   
     4     1    23 1   
     5     2     3 1   
     6     2    24 1   
     7     3     4 1   
     8     3    25 1   
     9     3    26 1   
    10     4     5 1   
    11     4    27 1   
    12     4    28 1   
    13     5     6 1   
    14     5    29 1   
    15     5    30 1   
    16     6     7 1   
    17     6    16 1   
    18     7     8 ar  
    19     7    12 ar  
    20     8     9 ar  
    21     8    31 1   
    22     9    10 ar  
    23     9    32 1   
    24    10    11 ar  
    25    10    33 1   
    26    11    12 ar  
    27    11    34 1   
    28    12    13 1   
    29    13    14 1   
    30    13    35 1   
    31    13    36 1   
    32    14    15 1   
    33    14    37 1   
    34    14    38 1   
    35    15    16 ar  
    36    15    17 ar  
    37    16    20 ar  
    38    17    18 ar  
    39    17    39 1   
    40    18    19 ar  
    41    18    40 1   
    42    19    20 ar  
    43    19    41 1   
    44    20    42 1   
@<TRIPOS>SUBSTRUCTURE
     1 DSM         1 TEMP              0 ****  ****    0 ROOT
