@<TRIPOS>MOLECULE
molecule
   83    87     1     0     0
SMALL
bcc


@<TRIPOS>ATOM
      1 C1           0.0000     0.0000     0.0000 c3         1 DSO      -0.069067
      2 C2           1.5290     0.0000     0.0000 c3         1 DSO      -0.066033
      3 C3           2.0400     0.0000     1.4410 c3         1 DSO      -0.069067
      4 C4           2.0400    -1.2490    -0.7220 c3         1 DSO      -0.055733
      5 C5          -0.5090    -1.2510     0.7210 c3         1 DSO      -0.066033
      6 C6           0.0010    -1.2510     2.1630 c3         1 DSO      -0.069067
      7 C7           0.0010    -2.4990    -0.0020 c3         1 DSO      -0.055733
      8 C8           1.5300    -1.2510     2.1620 c3         1 DSO      -0.066033
      9 C9           1.5310    -2.4980    -0.0020 c3         1 DSO      -0.129000
     10 C10          2.0410    -2.4990     1.4390 c3         1 DSO      -0.055733
     11 C11         -1.6450   -17.4350    -4.5800 ca         1 DSO      -0.176000
     12 C12         -0.2710   -17.3660    -4.3750 ca         1 DSO      -0.092000
     13 C13          0.2590   -17.4400    -3.1230 ca         1 DSO      -0.143000
     14 C14         -2.5090   -17.5810    -3.5150 ca         1 DSO       0.087600
     15 C15         -1.9880   -17.6540    -2.2060 ca         1 DSO      -0.044000
     16 C16         -0.5860   -17.5890    -2.0120 ca         1 DSO       0.050000
     17 C17         -0.0690   -17.6670    -0.7080 ca         1 DSO      -0.316500
     18 C18         -0.9160   -17.8150     0.3470 ca         1 DSO       0.004000
     19 C19         -2.2940   -17.8800     0.1540 ca         1 DSO      -0.174000
     20 C20         -2.8310   -17.8010    -1.0940 ca         1 DSO      -0.034000
     21 C22         -4.2720   -16.3930    -4.3830 c3         1 DSO       0.129100
     22 C23         -4.1050   -18.7210    -4.7100 c3         1 DSO       0.129100
     23 C24          2.0320    -3.7280    -0.7130 c          1 DSO       0.664100
     24 N25          1.7080    -4.9520    -0.2540 ns         1 DSO      -0.587900
     25 C26          2.1960    -6.1480    -0.9460 c3         1 DSO       0.111000
     26 C27          1.6870    -7.3980    -0.2250 c3         1 DSO      -0.101400
     27 C28          2.1970    -8.6460    -0.9480 c3         1 DSO      -0.078400
     28 C29          1.6880    -9.8960    -0.2270 c3         1 DSO      -0.081400
     29 C30          2.1990   -11.1450    -0.9500 c3         1 DSO      -0.081400
     30 C31          1.6900   -12.3940    -0.2300 c3         1 DSO      -0.080400
     31 C32          2.1990   -13.6420    -0.9510 c3         1 DSO      -0.091400
     32 C33          1.6910   -14.8930    -0.2310 c3         1 DSO       0.235800
     33 N34          2.1790   -16.0880    -0.9220 n7         1 DSO      -0.918100
     34 S36          1.6710   -17.5880    -0.4410 sy         1 DSO       1.429200
     35 O37          2.2460   -18.5050    -1.3630 o          1 DSO      -0.637800
     36 O38          2.7300    -3.6150    -1.7000 o          1 DSO      -0.610100
     37 H1C1        -0.3610     0.8840     0.5120 hc         1 DSO       0.042200
     38 H1C2        -0.3610     0.0010    -1.0210 hc         1 DSO       0.042200
     39 H2C          1.8900     0.8850    -0.5100 hc         1 DSO       0.050700
     40 H3C1         3.1230     0.0010     1.4410 hc         1 DSO       0.042200
     41 H3C2         1.6780     0.8840     1.9530 hc         1 DSO       0.042200
     42 H4C1         1.6790    -1.2480    -1.7440 hc         1 DSO       0.048367
     43 H4C2         3.1230    -1.2480    -0.7220 hc         1 DSO       0.048367
     44 H5C         -1.5920    -1.2520     0.7210 hc         1 DSO       0.050700
     45 H6C1        -0.3590    -2.1360     2.6740 hc         1 DSO       0.042200
     46 H6C2        -0.3600    -0.3670     2.6740 hc         1 DSO       0.042200
     47 H7C1        -0.3600    -2.4980    -1.0230 hc         1 DSO       0.048367
     48 H7C2        -0.3600    -3.3850     0.5080 hc         1 DSO       0.048367
     49 H8C          1.8920    -1.2510     3.1830 hc         1 DSO       0.050700
     50 H101         1.6810    -3.3840     1.9500 hc         1 DSO       0.048367
     51 H102         3.1240    -2.4990     1.4390 hc         1 DSO       0.048367
     52 H11         -2.0410   -17.3730    -5.5860 ha         1 DSO       0.134000
     53 H12          0.3890   -17.2510    -5.2270 ha         1 DSO       0.133000
     54 H13          1.3320   -17.3840    -2.9850 ha         1 DSO       0.147000
     55 H18         -0.5140   -17.8790     1.3500 ha         1 DSO       0.155000
     56 H19         -2.9470   -17.9970     1.0100 ha         1 DSO       0.137000
     57 H20         -3.9050   -17.8530    -1.2290 ha         1 DSO       0.156000
     58 H221        -3.7800   -15.5620    -3.8910 h1         1 DSO       0.041033
     59 H222        -3.9490   -16.4420    -5.4160 h1         1 DSO       0.041033
     60 H223        -5.3450   -16.2500    -4.3470 h1         1 DSO       0.041033
     61 H231        -3.8730   -18.3570    -5.7040 h1         1 DSO       0.041033
     62 H232        -5.1320   -19.0650    -4.6820 h1         1 DSO       0.041033
     63 H233        -3.4430   -19.5420    -4.4630 h1         1 DSO       0.041033
     64 H25          1.1340    -5.0450     0.5610 hn         1 DSO       0.313500
     65 H261         1.8340    -6.1470    -1.9670 h1         1 DSO       0.053200
     66 H262         3.2790    -6.1480    -0.9470 h1         1 DSO       0.053200
     67 H271         2.0480    -7.3980     0.7960 hc         1 DSO       0.045200
     68 H272         0.6030    -7.3980    -0.2250 hc         1 DSO       0.045200
     69 H281         1.8360    -8.6460    -1.9690 hc         1 DSO       0.046700
     70 H282         3.2810    -8.6460    -0.9480 hc         1 DSO       0.046700
     71 H291         0.6050    -9.8970    -0.2270 hc         1 DSO       0.042200
     72 H292         2.0490    -9.8970     0.7940 hc         1 DSO       0.042200
     73 H301         3.2820   -11.1440    -0.9500 hc         1 DSO       0.044200
     74 H302         1.8370   -11.1440    -1.9710 hc         1 DSO       0.044200
     75 H311         0.6070   -12.3940    -0.2290 hc         1 DSO       0.044700
     76 H312         2.0520   -12.3940     0.7910 hc         1 DSO       0.044700
     77 H321         1.8370   -13.6420    -1.9720 hc         1 DSO       0.048700
     78 H322         3.2820   -13.6420    -0.9520 hc         1 DSO       0.048700
     79 H331         2.0530   -14.8940     0.7900 h1         1 DSO       0.047700
     80 H332         0.6070   -14.8940    -0.2300 h1         1 DSO       0.047700
     81 H34          2.8500   -16.0000    -1.6590 hn         1 DSO       0.453800
     82 N21         -3.8830   -17.6490    -3.7300 nh         1 DSO      -0.570000
     83 O35          1.8480   -17.6220     0.9690 o          1 DSO      -0.637800
@<TRIPOS>BOND
     1     1     2 1
     2     1     5 1
     3     1    37 1
     4     1    38 1
     5     2     3 1
     6     2     4 1
     7     2    39 1
     8     3     8 1
     9     3    40 1
    10     3    41 1
    11     4     9 1
    12     4    42 1
    13     4    43 1
    14     5     6 1
    15     5     7 1
    16     5    44 1
    17     6     8 1
    18     6    45 1
    19     6    46 1
    20     7     9 1
    21     7    47 1
    22     7    48 1
    23     8    10 1
    24     8    49 1
    25     9    10 1
    26     9    23 1
    27    10    50 1
    28    10    51 1
    29    11    12 ar
    30    11    14 ar
    31    11    52 1
    32    12    13 ar
    33    12    53 1
    34    13    16 ar
    35    13    54 1
    36    14    15 ar
    37    14    82 1
    38    15    16 ar
    39    15    20 ar
    40    16    17 ar
    41    17    18 ar
    42    17    34 1
    43    18    19 ar
    44    18    55 1
    45    19    20 ar
    46    19    56 1
    47    20    57 1
    48    82    21 1
    49    82    22 1
    50    21    58 1
    51    21    59 1
    52    21    60 1
    53    22    61 1
    54    22    62 1
    55    22    63 1
    56    23    24 1
    57    23    36 2
    58    24    25 1
    59    24    64 1
    60    25    26 1
    61    25    65 1
    62    25    66 1
    63    26    27 1
    64    26    67 1
    65    26    68 1
    66    27    28 1
    67    27    69 1
    68    27    70 1
    69    28    29 1
    70    28    71 1
    71    28    72 1
    72    29    30 1
    73    29    73 1
    74    29    74 1
    75    30    31 1
    76    30    75 1
    77    30    76 1
    78    31    32 1
    79    31    77 1
    80    31    78 1
    81    32    33 1
    82    32    79 1
    83    32    80 1
    84    33    34 1
    85    33    81 1
    86    83    34 2
    87    34    35 2
@<TRIPOS>SUBSTRUCTURE
     1 DSO         1 TEMP              0 ****  ****    0 ROOT
