@<TRIPOS>MOLECULE
molecule
   45    46     1     0     0
SMALL
bcc


@<TRIPOS>ATOM
      1 C8           0.0000     0.0000     0.0000 c3         1 DSQ       0.349900
      2 C9           1.5310     0.0000     0.0000 c3         1 DSQ      -0.108400
      3 C10          2.0330     0.0000     1.4470 c3         1 DSQ      -0.080700
      4 C11          1.4520     1.2150     2.1770 c3         1 DSQ       0.116100
      5 C12         -0.0750     1.1680     2.0930 c3         1 DSQ       0.152100
      6 C13         -0.6620     2.4100     2.7680 c3         1 DSQ       0.149400
      7 O8          -0.4760     0.0560    -1.3470 oh         1 DSQ      -0.584800
      8 O12         -0.4750     1.1380     0.7210 os         1 DSQ      -0.432600
      9 O13         -2.0870     2.3110     2.7930 oh         1 DSQ      -0.599800
     10 O11          1.8550     1.1860     3.5480 oh         1 DSQ      -0.597800
     11 C7           3.5620     0.0770     1.4590 c3         1 DSQ      -0.066400
     12 C1           4.1400    -1.1930     0.8310 c3         1 DSQ       0.144100
     13 C2           5.6620    -1.0630     0.7280 c3         1 DSQ       0.093100
     14 O2           6.2110    -0.8300     2.0270 oh         1 DSQ      -0.589800
     15 C3           6.2400    -2.3610     0.1550 c3         1 DSQ       0.121100
     16 O3           5.7420    -2.5610    -1.1700 oh         1 DSQ      -0.585800
     17 C4           5.8140    -3.5330     1.0450 c3         1 DSQ       0.123100
     18 O4           6.2870    -4.7570     0.4790 oh         1 DSQ      -0.594800
     19 C5           4.2870    -3.5670     1.1340 c3         1 DSQ       0.136100
     20 O5           3.8140    -2.3190     1.6460 os         1 DSQ      -0.402600
     21 C6           3.6980    -3.8040    -0.2570 c3         1 DSQ      -0.122100
     22 H1          -0.3590    -0.9030     0.4780 h2         1 DSQ       0.026700
     23 H2           1.8920    -0.8860    -0.5070 hc         1 DSQ       0.064200
     24 H3           1.8920     0.8860    -0.5070 hc         1 DSQ       0.064200
     25 H4           1.7080    -0.9070     1.9410 hc         1 DSQ       0.085700
     26 H5           1.8110     2.1230     1.7080 h1         1 DSQ       0.042700
     27 H6          -0.4360     0.2770     2.5910 h1         1 DSQ       0.062700
     28 H7          -0.2880     2.4810     3.7820 h1         1 DSQ       0.032200
     29 H8          -0.3720     3.2940     2.2130 h1         1 DSQ       0.032200
     30 H9          -1.3130    -0.3750    -1.4030 ho         1 DSQ       0.411000
     31 H10         -2.4440     3.0300     3.2870 ho         1 DSQ       0.401000
     32 H11          2.3520     1.9630     3.7460 ho         1 DSQ       0.402000
     33 H12          3.8840     0.9410     0.8910 hc         1 DSQ       0.058700
     34 H13          3.9110     0.1660     2.4810 hc         1 DSQ       0.058700
     35 H14          3.7240    -1.3330    -0.1600 h1         1 DSQ       0.064700
     36 H15          5.9100    -0.2380     0.0720 h1         1 DSQ       0.038700
     37 H16          6.8550    -0.1440     1.9780 ho         1 DSQ       0.398000
     38 H17          7.3210    -2.2970     0.1350 h1         1 DSQ       0.040700
     39 H18          6.3740    -2.2450    -1.7950 ho         1 DSQ       0.397000
     40 H19          6.2310    -3.4030     2.0360 h1         1 DSQ       0.062700
     41 H20          6.7820    -5.2320     1.1260 ho         1 DSQ       0.400000
     42 H21          3.9840    -4.3660     1.8000 h1         1 DSQ       0.079700
     43 H22          3.8410    -2.9190    -0.8660 hc         1 DSQ       0.052033
     44 H23          4.1970    -4.6460    -0.7220 hc         1 DSQ       0.052033
     45 H24          2.6390    -4.0150    -0.1700 hc         1 DSQ       0.052033
@<TRIPOS>BOND
     1    21    19 1
     2    19    17 1
     3    19    20 1
     4    17    18 1
     5    17    15 1
     6    20    12 1
     7    11    12 1
     8    11     3 1
     9    15    16 1
    10    15    13 1
    11     2     3 1
    12     2     1 1
    13    12    13 1
    14     4     3 1
    15     4    10 1
    16     4     5 1
    17     8     1 1
    18     8     5 1
    19     7     1 1
    20     6     5 1
    21     6     9 1
    22    13    14 1
    23     1    22 1
    24     2    23 1
    25     2    24 1
    26     3    25 1
    27     4    26 1
    28     5    27 1
    29     6    28 1
    30     6    29 1
    31     7    30 1
    32     9    31 1
    33    10    32 1
    34    11    33 1
    35    11    34 1
    36    12    35 1
    37    13    36 1
    38    14    37 1
    39    15    38 1
    40    16    39 1
    41    17    40 1
    42    18    41 1
    43    19    42 1
    44    21    43 1
    45    21    44 1
    46    21    45 1
@<TRIPOS>SUBSTRUCTURE
     1 DSQ         1 TEMP              0 ****  ****    0 ROOT
