@<TRIPOS>MOLECULE
DSS
   14    13     1     0     0
SMALL
bcc


@<TRIPOS>ATOM
      1 S           0.7280    0.2840    0.2370 s4        1 DSS      0.301600
      2 O           1.4970    0.9720    1.3050 o         1 DSS     -0.505200
      3 C1         -0.7170   -0.3000    1.0070 c3        1 DSS     -0.137800
      4 C2          0.0640    1.5670   -0.7580 c3        1 DSS     -0.074000
      5 S3          0.0360    1.0340   -2.4160 ss        1 DSS     -0.224200
      6 C4         -1.6590    0.7270   -2.7250 c3        1 DSS     -0.054000
      7 H11        -1.4810   -0.5890    0.2500 h1        1 DSS      0.084367
      8 H12        -0.4610   -1.2080    1.6040 h1        1 DSS      0.084367
      9 H13        -1.1820    0.4290    1.7080 h1        1 DSS      0.084367
     10 H21         0.7430    2.4560   -0.6980 h2        1 DSS      0.121700
     11 H22        -0.9350    1.9190   -0.4160 h2        1 DSS      0.121700
     12 H41        -1.7200    0.3990   -3.7890 h1        1 DSS      0.066367
     13 H42        -2.2800    1.6410   -2.5920 h1        1 DSS      0.066367
     14 H43        -2.0700   -0.0770   -2.0750 h1        1 DSS      0.066367
@<TRIPOS>BOND
     1    1    2 2   
     2    1    3 1   
     3    1    4 1   
     4    3    7 1   
     5    3    8 1   
     6    3    9 1   
     7    4    5 1   
     8    4   10 1   
     9    4   11 1   
    10    5    6 1   
    11    6   12 1   
    12    6   13 1   
    13    6   14 1   
@<TRIPOS>SUBSTRUCTURE
     1 DSS         1 TEMP              0 ****  ****    0 ROOT
