@<TRIPOS>MOLECULE
molecule
   14    13     1     0     0
SMALL
bcc


@<TRIPOS>ATOM
      1 S            0.0000     0.0000     0.0000 s4         1 DSS       0.269600
      2 O            1.4200     0.0000     0.0000 o          1 DSS      -0.481200
      3 C1          -0.6050     0.0000     1.7100 c3         1 DSS      -0.106800
      4 C2          -0.6050     1.5840    -0.6460 c3         1 DSS      -0.006000
      5 S3          -0.0900     1.7670    -2.3760 ss         1 DSS      -0.268200
      6 C4          -1.2090     0.6430    -3.2570 c3         1 DSS      -0.015000
      7 H11         -0.1750     0.8380     2.2450 h1         1 DSS       0.075033
      8 H12         -1.6850     0.0860     1.7110 h1         1 DSS       0.075033
      9 H13         -0.3160    -0.9250     2.1950 h1         1 DSS       0.075033
     10 H21         -1.6860     1.6080    -0.5870 h2         1 DSS       0.099700
     11 H22         -0.1920     2.3950    -0.0580 h2         1 DSS       0.099700
     12 H41         -2.2260     1.0050    -3.1700 h1         1 DSS       0.061033
     13 H42         -1.1400    -0.3480    -2.8240 h1         1 DSS       0.061033
     14 H43         -0.9290     0.6010    -4.3020 h1         1 DSS       0.061033
@<TRIPOS>BOND
     1     1     2 2
     2     1     3 1
     3     1     4 1
     4     3     7 1
     5     3     8 1
     6     3     9 1
     7     4     5 1
     8     4    10 1
     9     4    11 1
    10     5     6 1
    11     6    12 1
    12     6    13 1
    13     6    14 1
@<TRIPOS>SUBSTRUCTURE
     1 DSS         1 TEMP              0 ****  ****    0 ROOT
