@<TRIPOS>MOLECULE
molecule
   25    24     1     0     0
SMALL
bcc


@<TRIPOS>ATOM
      1 O4           0.0000     0.0000     0.0000 o          1 DST      -0.907833
      2 P1           1.6090     0.0000     0.0000 p5         1 DST       1.156900
      3 O6           2.1470     0.0000     1.5170 o          1 DST      -0.907833
      4 O5           2.1020     1.2090    -0.6980 o          1 DST      -0.907833
      5 O2           2.1470    -1.3130    -0.7600 os         1 DST      -0.615800
      6 P3           3.7550    -1.2470    -0.7240 p5         1 DST       1.019800
      7 O8           4.2550     0.0880    -1.4690 o          1 DST      -0.699500
      8 O7           4.2160    -1.2300     0.6820 o          1 DST      -0.699500
      9 S9           4.5530    -2.9470    -1.7060 ss         1 DST      -0.629500
     10 C10          6.3270    -2.6160    -1.5160 c3         1 DST       0.141700
     11 C11          7.1300    -3.7440    -2.1690 c3         1 DST      -0.064400
     12 C12          8.6250    -3.4650    -2.0090 c3         1 DST      -0.083700
     13 C13          9.4270    -4.5920    -2.6610 c3         1 DST      -0.085600
     14 C14          8.9700    -2.1370    -2.6830 c3         1 DST      -0.085600
     15 H101         6.5730    -2.5610    -0.4630 h1         1 DST       0.058700
     16 H102         6.5710    -1.6750    -1.9940 h1         1 DST       0.058700
     17 H111         6.8840    -4.6840    -1.6910 hc         1 DST       0.037700
     18 H112         6.8830    -3.7990    -3.2230 hc         1 DST       0.037700
     19 H12          8.8710    -3.4100    -0.9550 hc         1 DST       0.043700
     20 H131         9.1350    -5.5410    -2.2270 hc         1 DST       0.021867
     21 H132         9.2290    -4.6070    -3.7260 hc         1 DST       0.021867
     22 H133        10.4840    -4.4280    -2.4920 hc         1 DST       0.021867
     23 H141        10.0160    -2.1370    -2.9660 hc         1 DST       0.021867
     24 H142         8.3570    -2.0110    -3.5670 hc         1 DST       0.021867
     25 H143         8.7830    -1.3230    -1.9940 hc         1 DST       0.021867
@<TRIPOS>BOND
     1     1     2 1
     2     2     3 1
     3     2     4 1
     4     2     5 1
     5     5     6 1
     6     6     7 1
     7     6     8 1
     8     6     9 1
     9     9    10 1
    10    10    11 1
    11    10    15 1
    12    10    16 1
    13    11    12 1
    14    11    17 1
    15    11    18 1
    16    12    13 1
    17    12    14 1
    18    12    19 1
    19    13    20 1
    20    13    21 1
    21    13    22 1
    22    14    23 1
    23    14    24 1
    24    14    25 1
@<TRIPOS>SUBSTRUCTURE
     1 DST         1 TEMP              0 ****  ****    0 ROOT
