@<TRIPOS>MOLECULE
molecule
   74    75     1     0     0
SMALL
bcc


@<TRIPOS>ATOM
      1 O1N          0.0000     0.0000     0.0000 o          1 DSU      -0.556000
      2 C1N          1.2090     0.0000     0.0000 c          1 DSU       0.638100
      3 C2N          1.9610     0.0000     1.3060 c3         1 DSU      -0.123400
      4 C3N          0.9670    -0.0000     2.4680 c3         1 DSU      -0.072400
      5 C4N          1.7310    -0.0000     3.7940 c3         1 DSU      -0.084400
      6 C5N          0.7350     0.0000     4.9560 c3         1 DSU      -0.079400
      7 C6N          1.5000     0.0000     6.2810 c3         1 DSU      -0.082400
      8 C7N          0.5050     0.0000     7.4440 c3         1 DSU      -0.082400
      9 C8N          1.2690     0.0000     8.7690 c3         1 DSU      -0.081400
     10 C9N          0.2750    -0.0000     9.9320 c3         1 DSU      -0.084400
     11 C10          1.0390    -0.0000    11.2570 c3         1 DSU      -0.092100
     12 O6'          1.8800     0.0000    -1.1620 os         1 DSU      -0.431900
     13 C6'          1.1550     0.0000    -2.4200 c3         1 DSU       0.166400
     14 C5'          2.1490     0.0000    -3.5820 c3         1 DSU       0.127100
     15 O2'          2.8550    -1.2570    -3.6480 os         1 DSU      -0.360600
     16 C4'          1.4040     0.0720    -4.9400 c3         1 DSU       0.078100
     17 O4'          1.1310     1.4260    -5.3070 oh         1 DSU      -0.599800
     18 C3'          2.4320    -0.5670    -5.9060 c3         1 DSU       0.068100
     19 O3'          1.7770    -1.4210    -6.8470 oh         1 DSU      -0.560800
     20 C2'          3.3580    -1.3870    -4.9880 c3         1 DSU       0.336600
     21 C1'          4.7850    -0.8390    -5.0630 c3         1 DSU       0.106400
     22 O1'          5.6270    -1.5770    -4.1760 oh         1 DSU      -0.558800
     23 O1           3.3460    -2.7610    -5.3810 os         1 DSU      -0.327600
     24 C1           3.9790    -2.8300    -6.6600 c3         1 DSU       0.337900
     25 O5           5.3950    -2.8220    -6.4890 os         1 DSU      -0.416600
     26 C5           5.9850    -2.7100    -7.7830 c3         1 DSU       0.329900
     27 O6           7.3950    -2.5190    -7.6470 os         1 DSU      -0.379600
     28 C6           7.5840    -1.2020    -7.1240 c3         1 DSU       0.112700
     29 C4           5.7210    -3.9860    -8.5850 c3         1 DSU       0.110100
     30 O4           6.2630    -5.1090    -7.8880 oh         1 DSU      -0.571800
     31 C3           4.2080    -4.1660    -8.7540 c3         1 DSU       0.097100
     32 O3           3.6900    -3.1150    -9.5720 oh         1 DSU      -0.594800
     33 C2           3.5510    -4.1180    -7.3700 c3         1 DSU       0.137100
     34 O2           2.1310    -4.1360    -7.5140 oh         1 DSU      -0.571800
     35 H2N1         2.5840     0.8850     1.3640 hc         1 DSU       0.073200
     36 H2N2         2.5840    -0.8840     1.3630 hc         1 DSU       0.073200
     37 H3N1         0.3440    -0.8850     2.4100 hc         1 DSU       0.058200
     38 H3N2         0.3440     0.8840     2.4100 hc         1 DSU       0.058200
     39 H4N1         2.3530    -0.8850     3.8520 hc         1 DSU       0.041200
     40 H4N2         2.3540     0.8840     3.8510 hc         1 DSU       0.041200
     41 H5N1         0.1120    -0.8840     4.8980 hc         1 DSU       0.044200
     42 H5N2         0.1130     0.8850     4.8980 hc         1 DSU       0.044200
     43 H6N1         2.1230    -0.8840     6.3390 hc         1 DSU       0.041200
     44 H6N2         2.1220     0.8850     6.3390 hc         1 DSU       0.041200
     45 H7N1        -0.1180     0.8840     7.3860 hc         1 DSU       0.041700
     46 H7N2        -0.1180    -0.8850     7.3860 hc         1 DSU       0.041700
     47 H8N1         1.8920    -0.8840     8.8270 hc         1 DSU       0.040700
     48 H8N2         1.8920     0.8850     8.8270 hc         1 DSU       0.040700
     49 H9N1        -0.3480    -0.8850     9.8740 hc         1 DSU       0.039700
     50 H9N2        -0.3480     0.8840     9.8740 hc         1 DSU       0.039700
     51 H101         1.6440    -0.8960    11.3250 hc         1 DSU       0.032367
     52 H102         1.6790     0.8730    11.3050 hc         1 DSU       0.032367
     53 H103         0.3350     0.0230    12.0800 hc         1 DSU       0.032367
     54 H6'1         0.5320    -0.8840    -2.4780 h1         1 DSU       0.061200
     55 H6'2         0.5320     0.8850    -2.4770 h1         1 DSU       0.061200
     56 H5'          2.8490     0.8220    -3.4920 h1         1 DSU       0.071700
     57 H4'          0.4940    -0.5160    -4.9070 h1         1 DSU       0.073700
     58 H7           0.2250     1.5070    -5.5570 ho         1 DSU       0.411000
     59 H3'          2.9960     0.2040    -6.4170 h1         1 DSU       0.058700
     60 H6           1.1910    -0.9100    -7.3810 ho         1 DSU       0.403000
     61 H1'1         5.1550    -0.9340    -6.0760 h1         1 DSU       0.039700
     62 H1'2         4.7850     0.2050    -4.7750 h1         1 DSU       0.039700
     63 H1'          6.1160    -0.9790    -3.6360 ho         1 DSU       0.394000
     64 H1           3.6860    -1.9770    -7.2590 h2         1 DSU       0.066700
     65 H5           5.5510    -1.8640    -8.3030 h2         1 DSU       0.044700
     66 H61          7.5190    -1.2300    -6.0430 h1         1 DSU       0.035700
     67 H62          6.8170    -0.5440    -7.5150 h1         1 DSU       0.035700
     68 H63          8.5600    -0.8340    -7.4180 h1         1 DSU       0.035700
     69 H4           6.1850    -3.9010    -9.5610 h1         1 DSU       0.049700
     70 HO4          6.7170    -5.6680    -8.4970 ho         1 DSU       0.402000
     71 H3           4.0080    -5.1250    -9.2160 h1         1 DSU       0.044700
     72 HO3          3.4510    -3.4620   -10.4160 ho         1 DSU       0.406000
     73 H2           3.8720    -4.9740    -6.7880 h1         1 DSU       0.077700
     74 HO2          1.8270    -5.0280    -7.5200 ho         1 DSU       0.397000
@<TRIPOS>BOND
     1     1     2 2
     2     2     3 1
     3     2    12 1
     4     3     4 1
     5     3    35 1
     6     3    36 1
     7     4     5 1
     8     4    37 1
     9     4    38 1
    10     5     6 1
    11     5    39 1
    12     5    40 1
    13     6     7 1
    14     6    41 1
    15     6    42 1
    16     7     8 1
    17     7    43 1
    18     7    44 1
    19     8     9 1
    20     8    45 1
    21     8    46 1
    22     9    10 1
    23     9    47 1
    24     9    48 1
    25    10    11 1
    26    10    49 1
    27    10    50 1
    28    11    51 1
    29    11    52 1
    30    11    53 1
    31    12    13 1
    32    13    14 1
    33    13    54 1
    34    13    55 1
    35    14    15 1
    36    14    16 1
    37    14    56 1
    38    15    20 1
    39    16    17 1
    40    16    18 1
    41    16    57 1
    42    17    58 1
    43    18    19 1
    44    18    20 1
    45    18    59 1
    46    19    60 1
    47    20    21 1
    48    20    23 1
    49    21    22 1
    50    21    61 1
    51    21    62 1
    52    22    63 1
    53    23    24 1
    54    24    25 1
    55    24    33 1
    56    24    64 1
    57    25    26 1
    58    26    27 1
    59    26    29 1
    60    26    65 1
    61    27    28 1
    62    28    66 1
    63    28    67 1
    64    28    68 1
    65    29    30 1
    66    29    31 1
    67    29    69 1
    68    30    70 1
    69    31    32 1
    70    31    33 1
    71    31    71 1
    72    32    72 1
    73    33    34 1
    74    33    73 1
    75    34    74 1
@<TRIPOS>SUBSTRUCTURE
     1 DSU         1 TEMP              0 ****  ****    0 ROOT
