@<TRIPOS>MOLECULE
DSU
   74    75     1     0     0
SMALL
bcc


@<TRIPOS>ATOM
      1 O1N         1.9100   -0.2440   -0.5680 o         1 DSU     -0.578000
      2 C1N         2.9120   -0.5510    0.0860 c         1 DSU      0.643100
      3 C2N         3.1910   -0.3300    1.5400 c3        1 DSU     -0.128400
      4 C3N         1.9380   -0.5170    2.3690 c3        1 DSU     -0.079400
      5 C4N         2.1960   -0.1590    3.8170 c3        1 DSU     -0.079400
      6 C5N         0.9530   -0.3590    4.6570 c3        1 DSU     -0.078400
      7 C6N         1.2060    0.0030    6.1050 c3        1 DSU     -0.079400
      8 C7N        -0.0370   -0.1950    6.9450 c3        1 DSU     -0.079400
      9 C8N         0.2140    0.1690    8.3920 c3        1 DSU     -0.079400
     10 C9N        -1.0280   -0.0270    9.2340 c3        1 DSU     -0.080400
     11 C10        -0.7820    0.3340   10.6760 c3        1 DSU     -0.093100
     12 O6'         3.9480   -1.1570   -0.5660 os        1 DSU     -0.430900
     13 C6'         3.7810   -1.4820   -1.9500 c3        1 DSU      0.125400
     14 C5'         3.7970   -0.2270   -2.8220 c3        1 DSU      0.086100
     15 O2'         4.7470   -0.4280   -3.8820 os        1 DSU     -0.376600
     16 C4'         2.4300    0.1040   -3.4560 c3        1 DSU      0.098100
     17 O4'         1.9620    1.3750   -3.0560 oh        1 DSU     -0.601800
     18 C3'         2.6920    0.1650   -4.9780 c3        1 DSU      0.099100
     19 O3'         1.7600   -0.6170   -5.6960 oh        1 DSU     -0.604800
     20 C2'         4.1080   -0.4460   -5.1530 c3        1 DSU      0.308600
     21 C1'         4.9820    0.3240   -6.1540 c3        1 DSU      0.138400
     22 O1'         6.3250   -0.0900   -6.1320 oh        1 DSU     -0.588800
     23 O1          4.0660   -1.8520   -5.3860 os        1 DSU     -0.422600
     24 C1          3.7690   -2.2750   -6.7010 c3        1 DSU      0.318900
     25 O5          5.0640   -2.3310   -7.2840 os        1 DSU     -0.490600
     26 C5          5.0760   -2.9310   -8.5820 c3        1 DSU      0.309900
     27 O6          6.4510   -2.9480   -8.8790 os        1 DSU     -0.401600
     28 C6          6.9920   -1.6650   -9.1780 c3        1 DSU      0.109700
     29 C4          4.5770   -4.3860   -8.5280 c3        1 DSU      0.133100
     30 O4          5.4230   -5.2300   -7.7800 oh        1 DSU     -0.578800
     31 C3          3.1590   -4.4070   -7.9270 c3        1 DSU      0.113100
     32 O3          2.3030   -3.7860   -8.8710 oh        1 DSU     -0.606800
     33 C2          3.1260   -3.6720   -6.5770 c3        1 DSU      0.088100
     34 O2          1.7610   -3.5540   -6.2140 oh        1 DSU     -0.608800
     35 H2N1        3.5800    0.7180    1.6500 hc        1 DSU      0.082700
     36 H2N2        3.9980   -1.0320    1.8790 hc        1 DSU      0.082700
     37 H3N1        1.5940   -1.5830    2.2980 hc        1 DSU      0.057200
     38 H3N2        1.1150    0.1250    1.9560 hc        1 DSU      0.057200
     39 H4N1        3.0290   -0.7940    4.2200 hc        1 DSU      0.042700
     40 H4N2        2.5300    0.9100    3.8880 hc        1 DSU      0.042700
     41 H5N1        0.1190    0.2730    4.2510 hc        1 DSU      0.042700
     42 H5N2        0.6210   -1.4290    4.5890 hc        1 DSU      0.042700
     43 H6N1        1.5390    1.0730    6.1720 hc        1 DSU      0.040700
     44 H6N2        2.0390   -0.6290    6.5110 hc        1 DSU      0.040700
     45 H7N1       -0.3700   -1.2640    6.8780 hc        1 DSU      0.040700
     46 H7N2       -0.8710    0.4370    6.5380 hc        1 DSU      0.040700
     47 H8N1        1.0470   -0.4630    8.8000 hc        1 DSU      0.039700
     48 H8N2        0.5480    1.2380    8.4590 hc        1 DSU      0.039700
     49 H9N1       -1.3610   -1.0970    9.1650 hc        1 DSU      0.038700
     50 H9N2       -1.8610    0.6040    8.8240 hc        1 DSU      0.038700
     51 H101       -0.4740    1.4040   10.7670 hc        1 DSU      0.033033
     52 H102       -1.7110    0.1820   11.2780 hc        1 DSU      0.033033
     53 H103        0.0270   -0.3010   11.1100 hc        1 DSU      0.033033
     54 H6'1        4.6820   -2.1200   -2.1700 h1        1 DSU      0.082700
     55 H6'2        2.8380   -2.0710   -2.0840 h1        1 DSU      0.082700
     56 H5'         4.1850    0.6490   -2.2320 h1        1 DSU      0.089700
     57 H4'         1.6670   -0.6840   -3.2110 h1        1 DSU      0.071700
     58 H7          1.6900    1.2940   -2.1310 ho        1 DSU      0.434000
     59 H3'         2.6740    1.2290   -5.3380 h1        1 DSU      0.081700
     60 H6          0.8980   -0.1960   -5.5780 ho        1 DSU      0.424000
     61 H1'1        4.5510    0.1830   -7.1820 h1        1 DSU      0.056200
     62 H1'2        5.0020    1.4130   -5.8810 h1        1 DSU      0.056200
     63 H1'         6.3350   -1.0580   -6.0870 ho        1 DSU      0.433000
     64 H1          3.1030   -1.5650   -7.2640 h2        1 DSU      0.079700
     65 H5          4.4700   -2.3170   -9.3020 h2        1 DSU      0.066700
     66 H61         6.5130   -1.2510  -10.0990 h1        1 DSU      0.046033
     67 H62         6.8500   -0.9670   -8.3160 h1        1 DSU      0.046033
     68 H63         8.0780   -1.8680   -9.3520 h1        1 DSU      0.046033
     69 H4          4.5550   -4.8180   -9.5670 h1        1 DSU      0.103700
     70 HO4         5.8240   -4.6930   -7.0810 ho        1 DSU      0.421000
     71 H3          2.8380   -5.4740   -7.7640 h1        1 DSU      0.072700
     72 HO3         1.4280   -3.7410   -8.4610 ho        1 DSU      0.428000
     73 H2          3.6770   -4.2730   -5.8010 h1        1 DSU      0.075700
     74 HO2         1.7040   -2.8560   -5.5460 ho        1 DSU      0.432000
@<TRIPOS>BOND
     1    1    2 2   
     2    2    3 1   
     3    2   12 1   
     4    3    4 1   
     5    3   35 1   
     6    3   36 1   
     7    4    5 1   
     8    4   37 1   
     9    4   38 1   
    10    5    6 1   
    11    5   39 1   
    12    5   40 1   
    13    6    7 1   
    14    6   41 1   
    15    6   42 1   
    16    7    8 1   
    17    7   43 1   
    18    7   44 1   
    19    8    9 1   
    20    8   45 1   
    21    8   46 1   
    22    9   10 1   
    23    9   47 1   
    24    9   48 1   
    25   10   11 1   
    26   10   49 1   
    27   10   50 1   
    28   11   51 1   
    29   11   52 1   
    30   11   53 1   
    31   12   13 1   
    32   13   14 1   
    33   13   54 1   
    34   13   55 1   
    35   14   15 1   
    36   14   16 1   
    37   14   56 1   
    38   15   20 1   
    39   16   17 1   
    40   16   18 1   
    41   16   57 1   
    42   17   58 1   
    43   18   19 1   
    44   18   20 1   
    45   18   59 1   
    46   19   60 1   
    47   20   21 1   
    48   20   23 1   
    49   21   22 1   
    50   21   61 1   
    51   21   62 1   
    52   22   63 1   
    53   23   24 1   
    54   24   25 1   
    55   24   33 1   
    56   24   64 1   
    57   25   26 1   
    58   26   27 1   
    59   26   29 1   
    60   26   65 1   
    61   27   28 1   
    62   28   66 1   
    63   28   67 1   
    64   28   68 1   
    65   29   30 1   
    66   29   31 1   
    67   29   69 1   
    68   30   70 1   
    69   31   32 1   
    70   31   33 1   
    71   31   71 1   
    72   32   72 1   
    73   33   34 1   
    74   33   73 1   
    75   34   74 1   
@<TRIPOS>SUBSTRUCTURE
     1 DSU         1 TEMP              0 ****  ****    0 ROOT
