@<TRIPOS>MOLECULE
DSV
   40    42     1     0     0
SMALL
bcc


@<TRIPOS>ATOM
      1 C1           0.0000     0.0000     0.0000 ca         1 DSV      -0.108500
      2 C2           1.3750     0.0000     0.0000 ca         1 DSV       0.073000
      3 C3           2.0850     0.0000     1.2070 ca         1 DSV       0.023900
      4 C4           1.3930    -0.0000     2.4100 cp         1 DSV      -0.011000
      5 C5          -0.0150     0.0010     2.3930 ca         1 DSV      -0.099000
      6 C6          -0.6950    -0.0010     1.1990 ca         1 DSV       0.024000
      7 S10          3.8190     0.0000     1.4880 ss         1 DSV      -0.207800
      8 C11          3.6300    -0.0000     3.2340 ca         1 DSV       0.042900
      9 C12          2.2870    -0.0000     3.5820 cp         1 DSV      -0.041000
     10 CY1          4.6070     0.0000     4.2390 ca         1 DSV      -0.064000
     11 CZ1          4.2410     0.0000     5.5640 ca         1 DSV      -0.106000
     12 CZ2          2.9010     0.0010     5.9170 ca         1 DSV      -0.118000
     13 CY2          1.9300    -0.0010     4.9450 ca         1 DSV      -0.061000
     14 S21         -0.8800     0.0070    -1.5260 sy         1 DSV       1.032200
     15 O22          0.0010    -0.5380    -2.5000 o          1 DSV      -0.621300
     16 O23         -2.1640    -0.5330    -1.2510 o          1 DSV      -0.621300
     17 N24         -1.1180     1.5910    -1.9480 n7         1 DSV      -0.517100
     18 C10          0.0290     2.4460    -2.2640 c3         1 DSV       0.079500
     19 CBC         -0.3580     3.4300    -3.3690 c3         1 DSV      -0.033700
     20 CC1          0.8400     4.3230    -3.6990 c3         1 DSV      -0.001100
     21 CC2         -0.7760     2.6550    -4.6190 c3         1 DSV      -0.001100
     22 C37          0.4410     3.2100    -1.0320 c          1 DSV       0.955600
     23 O39         -0.1610     3.0560     0.0040 o          1 DSV      -0.888300
     24 O40          1.4780     4.0610    -1.0850 o          1 DSV      -0.888300
     25 H2           1.9130     0.0000    -0.9400 ha         1 DSV       0.128000
     26 H5          -0.5650     0.0000     3.3260 ha         1 DSV       0.097000
     27 H6          -1.7780    -0.0010     1.1950 ha         1 DSV       0.116000
     28 HY1          5.6560     0.0000     3.9690 ha         1 DSV       0.105000
     29 HZ1          5.0030     0.0010     6.3350 ha         1 DSV       0.096000
     30 HZ2          2.6180     0.0010     6.9630 ha         1 DSV       0.096000
     31 HY2          0.8840    -0.0010     5.2280 ha         1 DSV       0.103000
     32 HN24        -2.0430     1.9740    -1.9520 hn         1 DSV       0.339800
     33 HC1          1.7510     3.7380    -3.6490 hc         1 DSV       0.002033
     34 HC1A         0.7250     4.7270    -4.6980 hc         1 DSV       0.002033
     35 HC1B         0.8930     5.1350    -2.9850 hc         1 DSV       0.002033
     36 HBC         -1.1840     4.0450    -3.0320 hc         1 DSV       0.017700
     37 HC2         -0.9990     3.3510    -5.4190 hc         1 DSV       0.002033
     38 HC2A        -1.6570     2.0640    -4.4000 hc         1 DSV       0.002033
     39 HC2B         0.0310     2.0010    -4.9250 hc         1 DSV       0.002033
     40 H10          0.8550     1.8310    -2.6000 h1         1 DSV       0.045700
@<TRIPOS>BOND
     1     1     2 ar  
     2     1     6 ar  
     3     1    14 1   
     4     2     3 ar  
     5     2    25 1   
     6     3     4 ar  
     7     3     7 1   
     8     4     5 ar  
     9     4     9 1   
    10     5     6 ar  
    11     5    26 1   
    12     6    27 1   
    13     7     8 1   
    14     8     9 ar  
    15     8    10 ar  
    16     9    13 ar  
    17    10    11 ar  
    18    10    28 1   
    19    11    12 ar  
    20    11    29 1   
    21    12    13 ar  
    22    12    30 1   
    23    13    31 1   
    24    14    15 2   
    25    14    16 2   
    26    14    17 1   
    27    17    18 1   
    28    17    32 1   
    29    18    19 1   
    30    18    22 1   
    31    18    40 1   
    32    19    20 1   
    33    19    21 1   
    34    19    36 1   
    35    20    33 1   
    36    20    34 1   
    37    20    35 1   
    38    21    37 1   
    39    21    38 1   
    40    21    39 1   
    41    22    23 1   
    42    22    24 1   
@<TRIPOS>SUBSTRUCTURE
     1 DSV         1 TEMP              0 ****  ****    0 ROOT
