@<TRIPOS>MOLECULE
molecule
   40    42     1     0     0
SMALL
bcc


@<TRIPOS>ATOM
      1 C1           0.0000     0.0000     0.0000 ca         1 DSV      -0.261500
      2 C2           1.3750     0.0000     0.0000 ca         1 DSV       0.029000
      3 C3           2.0850     0.0000     1.2070 ca         1 DSV      -0.008100
      4 C4           1.3930    -0.0000     2.4100 cp         1 DSV      -0.011000
      5 C5          -0.0150     0.0010     2.3930 ca         1 DSV      -0.115000
      6 C6          -0.6950    -0.0010     1.1990 ca         1 DSV      -0.013000
      7 S10          3.8190     0.0000     1.4880 ss         1 DSV      -0.093800
      8 C11          3.6300    -0.0000     3.2340 ca         1 DSV       0.006900
      9 C12          2.2870    -0.0000     3.5820 cp         1 DSV      -0.051000
     10 CY1          4.6070     0.0000     4.2390 ca         1 DSV      -0.105000
     11 CZ1          4.2410     0.0000     5.5640 ca         1 DSV      -0.125000
     12 CZ2          2.9010     0.0010     5.9170 ca         1 DSV      -0.147000
     13 CY2          1.9300    -0.0010     4.9450 ca         1 DSV      -0.086000
     14 S21         -0.8800     0.0070    -1.5260 sy         1 DSV       1.432200
     15 O22          0.0010    -0.5380    -2.5000 o          1 DSV      -0.670300
     16 O23         -2.1640    -0.5330    -1.2510 o          1 DSV      -0.670300
     17 N24         -1.1180     1.5910    -1.9480 n7         1 DSV      -0.875100
     18 C10          0.0290     2.4460    -2.2640 c3         1 DSV       0.130500
     19 CBC         -0.3580     3.4300    -3.3690 c3         1 DSV      -0.055700
     20 CC1          0.8400     4.3230    -3.6990 c3         1 DSV      -0.080600
     21 CC2         -0.7760     2.6550    -4.6190 c3         1 DSV      -0.080600
     22 C37          0.4410     3.2100    -1.0320 c          1 DSV       0.869600
     23 O39         -0.1610     3.0560     0.0040 o          1 DSV      -0.836300
     24 O40          1.4780     4.0610    -1.0850 o          1 DSV      -0.836300
     25 H2           1.9130     0.0000    -0.9400 ha         1 DSV       0.154000
     26 H5          -0.5650     0.0000     3.3260 ha         1 DSV       0.123000
     27 H6          -1.7780    -0.0010     1.1950 ha         1 DSV       0.146000
     28 HY1          5.6560     0.0000     3.9690 ha         1 DSV       0.128000
     29 HZ1          5.0030     0.0010     6.3350 ha         1 DSV       0.122000
     30 HZ2          2.6180     0.0010     6.9630 ha         1 DSV       0.122000
     31 HY2          0.8840    -0.0010     5.2280 ha         1 DSV       0.131000
     32 HN24        -2.0430     1.9740    -1.9520 hn         1 DSV       0.447800
     33 HC1          1.7510     3.7380    -3.6490 hc         1 DSV       0.029200
     34 HC1A         0.7250     4.7270    -4.6980 hc         1 DSV       0.029200
     35 HC1B         0.8930     5.1350    -2.9850 hc         1 DSV       0.029200
     36 HBC         -1.1840     4.0450    -3.0320 hc         1 DSV       0.043700
     37 HC2         -0.9990     3.3510    -5.4190 hc         1 DSV       0.029200
     38 HC2A        -1.6570     2.0640    -4.4000 hc         1 DSV       0.029200
     39 HC2B         0.0310     2.0010    -4.9250 hc         1 DSV       0.029200
     40 H10          0.8550     1.8310    -2.6000 h1         1 DSV       0.062700
@<TRIPOS>BOND
     1     2     1 ar
     2     1     6 ar
     3     1    14 1
     4     3     2 ar
     5     2    25 1
     6     7     3 1
     7     4     3 ar
     8     9     4 1
     9     4     5 ar
    10    26     5 1
    11     5     6 ar
    12     6    27 1
    13     8     7 1
    14    10     8 ar
    15     8     9 ar
    16    13     9 ar
    17    11    10 ar
    18    28    10 1
    19    29    11 1
    20    11    12 ar
    21    30    12 1
    22    12    13 ar
    23    13    31 1
    24    17    14 1
    25    15    14 2
    26    14    16 2
    27    32    17 1
    28    17    18 1
    29    22    18 1
    30    18    19 1
    31    18    40 1
    32    21    19 1
    33    19    36 1
    34    19    20 1
    35    33    20 1
    36    20    34 1
    37    20    35 1
    38    37    21 1
    39    39    21 1
    40    38    21 1
    41    23    22 1
    42    24    22 1
@<TRIPOS>SUBSTRUCTURE
     1 DSV         1 TEMP              0 ****  ****    0 ROOT
