@<TRIPOS>MOLECULE
molecule
   63    64     1     0     0
SMALL
bcc


@<TRIPOS>ATOM
      1 C1           0.0000     0.0000     0.0000 ca         1 DSX      -0.124000
      2 C2           1.3820     0.0000     0.0000 ca         1 DSX      -0.118000
      3 C3           2.0730     0.0000     1.1970 ca         1 DSX      -0.123500
      4 C4           1.3820    -0.0010     2.3940 ca         1 DSX      -0.087300
      5 C5          -0.0000    -0.0080     2.3930 ca         1 DSX      -0.123500
      6 C6          -0.6910    -0.0020     1.1970 ca         1 DSX      -0.118000
      7 C10          2.1340    -0.0020     3.6990 c3         1 DSX      -0.043100
      8 C13          2.3880     1.4410     4.1410 c3         1 DSX       0.046700
      9 C14          3.1420     1.4410     5.4470 c          1 DSX       0.647100
     10 O15          2.5350     1.4630     6.4960 o          1 DSX      -0.592100
     11 N16          4.4890     1.4160     5.4470 ns         1 DSX      -0.585900
     12 C17          5.2240     1.5270     6.7100 c3         1 DSX       0.102300
     13 N18          3.1810     2.1330     3.1210 ns         1 DSX      -0.587900
     14 C19          3.1250     3.4750     3.0190 c          1 DSX       0.660100
     15 O20          2.3360     4.1010     3.6940 o          1 DSX      -0.592100
     16 C21          4.0430     4.1980     2.0690 c3         1 DSX      -0.132700
     17 C22          5.0620     5.0140     2.8650 c3         1 DSX      -0.067400
     18 C23          6.3360     5.1890     2.0370 c3         1 DSX      -0.091700
     19 C24          7.3720     5.9670     2.8510 c3         1 DSX      -0.086600
     20 C25          6.9000     3.8150     1.6730 c3         1 DSX      -0.086600
     21 C27          3.2220     5.1340     1.1800 c3         1 DSX      -0.104700
     22 C28          2.2030     4.3170     0.3840 c3         1 DSX      -0.014300
     23 S29          1.0900     5.4410    -0.5050 ss         1 DSX      -0.170000
     24 C30          0.0530     4.2670    -1.3130 cc         1 DSX       0.095800
     25 S31          0.1110     2.4860    -1.2500 ss         1 DSX      -0.198800
     26 C32         -1.2680     2.1500    -2.3330 cc         1 DSX      -0.058100
     27 C33         -1.6760     3.3950    -2.6680 cd         1 DSX      -0.155000
     28 C34         -1.0060     4.4860    -2.1430 cd         1 DSX      -0.164000
     29 C35          4.1400     5.8570     0.2290 c          1 DSX       0.677100
     30 O36          4.7910     5.2300    -0.5790 o          1 DSX      -0.577100
     31 N37          4.2380     7.2000     0.2760 ns         1 DSX      -0.465400
     32 O38          5.1340     7.8760    -0.5870 oh         1 DSX      -0.361100
     33 H1          -0.5420     0.0020    -0.9380 ha         1 DSX       0.130000
     34 H2           1.9240     0.0010    -0.9380 ha         1 DSX       0.135500
     35 H3           3.1560     0.0030     1.1980 ha         1 DSX       0.128500
     36 H5          -0.5420    -0.0090     3.3310 ha         1 DSX       0.128500
     37 H6          -1.7740    -0.0050     1.1970 ha         1 DSX       0.135500
     38 H101         1.5490    -0.5130     4.4540 hc         1 DSX       0.064200
     39 H102         3.0810    -0.5120     3.5700 hc         1 DSX       0.064200
     40 H13          1.4420     1.9510     4.2710 h1         1 DSX       0.120700
     41 HN6          4.9860     1.2810     4.5900 hn         1 DSX       0.309500
     42 H171         6.2890     1.5230     6.5100 h1         1 DSX       0.043367
     43 H172         4.9540     2.4520     7.2050 h1         1 DSX       0.043367
     44 H173         4.9730     0.6890     7.3490 h1         1 DSX       0.043367
     45 HN8          3.7760     1.6090     2.5100 hn         1 DSX       0.315500
     46 H21          4.5620     3.4760     1.4510 hc         1 DSX       0.080700
     47 H221         4.6450     5.9870     3.0960 hc         1 DSX       0.054200
     48 H222         5.3000     4.4950     3.7860 hc         1 DSX       0.054200
     49 H23          6.1040     5.7360     1.1300 hc         1 DSX       0.078700
     50 H241         7.6810     5.3740     3.7030 hc         1 DSX       0.034700
     51 H242         6.9350     6.8960     3.1970 hc         1 DSX       0.034700
     52 H243         8.2320     6.1820     2.2290 hc         1 DSX       0.034700
     53 H251         7.9680     3.8950     1.5100 hc         1 DSX       0.034700
     54 H252         6.4230     3.4560     0.7690 hc         1 DSX       0.034700
     55 H253         6.7090     3.1200     2.4820 hc         1 DSX       0.034700
     56 H27          2.7020     5.8550     1.7980 hc         1 DSX       0.084700
     57 H281         2.7230     3.6860    -0.3270 h1         1 DSX       0.088700
     58 H282         1.6270     3.6990     1.0620 h1         1 DSX       0.088700
     59 H32         -1.6720     1.1940    -2.6450 h4         1 DSX       0.184000
     60 H33         -2.5200     3.5370    -3.3330 ha         1 DSX       0.143000
     61 H34         -1.3120     5.4940    -2.3940 ha         1 DSX       0.147000
     62 HN7          3.6600     7.7210     0.9050 hn         1 DSX       0.326500
     63 HO8          4.8620     8.7740    -0.6810 ho         1 DSX       0.401000
@<TRIPOS>BOND
     1     1     2 ar
     2     1     6 ar
     3     1    33 1
     4     2     3 ar
     5     2    34 1
     6     3     4 ar
     7     3    35 1
     8     4     5 ar
     9     4     7 1
    10     5     6 ar
    11     5    36 1
    12     6    37 1
    13     7     8 1
    14     7    38 1
    15     7    39 1
    16     8     9 1
    17     8    13 1
    18     8    40 1
    19     9    10 2
    20     9    11 1
    21    11    12 1
    22    11    41 1
    23    12    42 1
    24    12    43 1
    25    12    44 1
    26    13    14 1
    27    13    45 1
    28    14    15 2
    29    14    16 1
    30    16    17 1
    31    16    21 1
    32    16    46 1
    33    17    18 1
    34    17    47 1
    35    17    48 1
    36    18    19 1
    37    18    20 1
    38    18    49 1
    39    19    50 1
    40    19    51 1
    41    19    52 1
    42    20    53 1
    43    20    54 1
    44    20    55 1
    45    21    22 1
    46    21    29 1
    47    21    56 1
    48    22    23 1
    49    22    57 1
    50    22    58 1
    51    23    24 1
    52    24    25 1
    53    24    28 2
    54    25    26 1
    55    26    27 2
    56    26    59 1
    57    27    28 1
    58    27    60 1
    59    28    61 1
    60    29    30 2
    61    29    31 1
    62    31    32 1
    63    31    62 1
    64    32    63 1
@<TRIPOS>SUBSTRUCTURE
     1 DSX         1 TEMP              0 ****  ****    0 ROOT
