@<TRIPOS>MOLECULE
molecule
   29    30     1     0     0
SMALL
bcc


@<TRIPOS>ATOM
      1 C1           0.0000     0.0000     0.0000 ca         1 DSY      -0.032000
      2 C2           1.3600     0.0000     0.0000 ca         1 DSY      -0.250500
      3 C3           2.0770     0.0000     1.1960 ca         1 DSY      -0.035000
      4 C4           1.4350    -0.0010     2.3960 ca         1 DSY      -0.154000
      5 C4A          0.0330     0.0060     2.4340 ca         1 DSY       0.006000
      6 C5          -0.6670    -0.0010     3.6600 ca         1 DSY       0.053600
      7 C6          -2.0450    -0.0030     3.6540 ca         1 DSY      -0.175000
      8 C7          -2.7500    -0.0020     2.4540 ca         1 DSY      -0.154000
      9 C8          -2.1000    -0.0020     1.2570 ca         1 DSY      -0.100000
     10 C8A         -0.6970    -0.0000     1.2200 ca         1 DSY      -0.059000
     11 N            0.0300    -0.0010     4.8670 nh         1 DSY      -0.551000
     12 CM1         -0.3690     1.2160     5.5850 c3         1 DSY       0.130100
     13 CM2         -0.4790    -1.1370     5.6470 c3         1 DSY       0.130100
     14 S            2.2290     0.0000    -1.5330 s6         1 DSY       1.323100
     15 O1S          3.5180    -0.5250    -1.2460 o          1 DSY      -0.708533
     16 O2S          2.4540     1.4520    -1.9280 o          1 DSY      -0.708533
     17 O3S          1.3220    -0.5260    -2.4900 o          1 DSY      -0.708533
     18 H1          -0.5440     0.0000    -0.9370 ha         1 DSY       0.155000
     19 H3           3.1600     0.0000     1.1690 ha         1 DSY       0.151000
     20 H4           2.0040    -0.0010     3.3180 ha         1 DSY       0.136000
     21 H6          -2.5860    -0.0030     4.5920 ha         1 DSY       0.114000
     22 H7          -3.8330    -0.0030     2.4720 ha         1 DSY       0.112000
     23 H8          -2.6670    -0.0020     0.3330 ha         1 DSY       0.128000
     24 HM11         0.3380     1.4120     6.3820 h1         1 DSY       0.033200
     25 HM12        -0.3800     2.0530     4.8980 h1         1 DSY       0.033200
     26 HM13        -1.3580     1.0800     6.0040 h1         1 DSY       0.033200
     27 HM21        -0.6070    -1.9940     4.9960 h1         1 DSY       0.033200
     28 HM22         0.2280    -1.3820     6.4310 h1         1 DSY       0.033200
     29 HM23        -1.4320    -0.8740     6.0900 h1         1 DSY       0.033200
@<TRIPOS>BOND
     1     1     2 ar
     2     1    10 ar
     3     1    18 1
     4     2     3 ar
     5     2    14 1
     6     3     4 ar
     7     3    19 1
     8     4     5 ar
     9     4    20 1
    10     5     6 ar
    11     5    10 ar
    12     6     7 ar
    13     6    11 1
    14     7     8 ar
    15     7    21 1
    16     8     9 ar
    17     8    22 1
    18     9    10 ar
    19     9    23 1
    20    11    12 1
    21    11    13 1
    22    12    24 1
    23    12    25 1
    24    12    26 1
    25    13    27 1
    26    13    28 1
    27    13    29 1
    28    14    15 1
    29    14    16 1
    30    14    17 1
@<TRIPOS>SUBSTRUCTURE
     1 DSY         1 TEMP              0 ****  ****    0 ROOT
