@<TRIPOS>MOLECULE
molecule
   50    52     1     0     0
SMALL
bcc


@<TRIPOS>ATOM
      1 C            0.0000     0.0000     0.0000 c          1 DSZ       0.663100
      2 N            1.9960     1.2000    -0.6920 nz         1 DSZ      -0.790600
      3 O           -0.6060     1.0350    -0.1780 o          1 DSZ      -0.559100
      4 N1           0.1990     1.5210    -9.6210 nb         1 DSZ      -0.768000
      5 C2          -1.0090     0.9930    -9.5340 ca         1 DSZ       0.710900
      6 N3          -1.4980     0.5290    -8.4020 nb         1 DSZ      -0.741000
      7 C4          -0.7800     0.5770    -7.2850 ca         1 DSZ       0.455800
      8 C5           0.5110     1.1300    -7.3250 ca         1 DSZ      -0.161200
      9 C6           0.9890     1.6110    -8.5560 ca         1 DSZ       0.781200
     10 N6           2.2530     2.1660    -8.6570 nv         1 DSZ      -1.072500
     11 N7           1.0160     1.0570    -6.0700 nc         1 DSZ      -0.577100
     12 C8           0.1380     0.5070    -5.2810 cd         1 DSZ       0.426700
     13 N9          -0.9870     0.1930    -5.9840 na         1 DSZ      -0.257000
     14 CA           1.5070     0.0000     0.0000 c3         1 DSZ       0.050500
     15 CB           2.0170     0.0000     1.4430 c3         1 DSZ      -0.216400
     16 CG           3.5180    -0.1230     1.4440 c          1 DSZ       0.870600
     17 C1'         -2.1960    -0.4370    -5.4480 c3         1 DSZ       0.262800
     18 C2'         -2.1510    -1.9710    -5.6590 c3         1 DSZ       0.095100
     19 O2'         -2.6580    -2.3230    -6.9480 oh         1 DSZ      -0.550800
     20 C3'         -3.0890    -2.4810    -4.5380 c3         1 DSZ       0.087100
     21 O3'         -4.3960    -2.7350    -5.0560 oh         1 DSZ      -0.561800
     22 C4'         -3.1250    -1.3240    -3.5210 c3         1 DSZ       0.130100
     23 O4'         -2.2480    -0.2960    -4.0120 os         1 DSZ      -0.414600
     24 C5'         -2.6390    -1.8150    -2.1560 c3         1 DSZ       0.156400
     25 O5'         -2.7860    -0.7690    -1.1940 os         1 DSZ      -0.533500
     26 NAT         -0.6730    -1.1500     0.2010 ns         1 DSZ      -0.663300
     27 OAX         -2.7280    -0.0860     1.0620 o          1 DSZ      -0.609800
     28 OAY         -2.7310    -2.4990     0.4080 o          1 DSZ      -0.609800
     29 SBE         -2.3300    -1.1500     0.2080 s6         1 DSZ       1.649100
     30 OD1          4.1890    -0.1450     2.6080 o          1 DSZ      -0.806300
     31 OD2          4.1190    -0.2030     0.3990 o          1 DSZ      -0.806300
     32 HN           2.4830     1.7850    -0.0420 hn         1 DSZ       0.461800
     33 HNA          1.2210     1.7020    -1.0770 hn         1 DSZ       0.461800
     34 HN6          3.0310     1.5930    -8.9160 hn         1 DSZ       0.446800
     35 HN6A         2.3800     3.1490    -8.5150 hn         1 DSZ       0.446800
     36 HA           1.8680    -0.8840    -0.5110 hx         1 DSZ       0.128700
     37 HB           1.5850    -0.8370     1.9780 hc         1 DSZ       0.082200
     38 HBA          1.7300     0.9250     1.9280 hc         1 DSZ       0.082200
     39 H1'         -3.0850    -0.0170    -5.9020 h2         1 DSZ       0.122700
     40 H2'         -1.1460    -2.3480    -5.5170 h1         1 DSZ       0.057700
     41 HO2'        -2.2220    -3.1010    -7.2560 ho         1 DSZ       0.411000
     42 H3'         -2.6770    -3.3720    -4.0800 h1         1 DSZ       0.047700
     43 HO3'        -4.6460    -3.6220    -4.8560 ho         1 DSZ       0.413000
     44 H4'         -4.1340    -0.9380    -3.4410 h1         1 DSZ       0.105700
     45 H5'         -1.5950    -2.0980    -2.2250 h1         1 DSZ       0.065700
     46 H5'A        -3.2260    -2.6720    -1.8500 h1         1 DSZ       0.065700
     47 HNAT        -0.1730    -1.9980     0.3830 hn         1 DSZ       0.360500
     48 H8           0.2810     0.3260    -4.2230 h5         1 DSZ       0.067800
     49 HN3          2.6160     0.9300    -1.4300 hn         1 DSZ       0.461800
     50 H2          -1.6200     0.9390   -10.4270 h5         1 DSZ       0.068100
@<TRIPOS>BOND
     1    14     1 1
     2     1    26 1
     3     1     3 2
     4     2    14 1
     5     2    32 1
     6     2    33 1
     7     5     4 ar
     8     4     9 ar
     9     6     5 ar
    10     5    50 1
    11     6     7 ar
    12    13     7 1
    13     7     8 ar
    14     8    11 1
    15     8     9 ar
    16     9    10 1
    17    10    34 1
    18    10    35 1
    19    12    11 2
    20    13    12 1
    21    12    48 1
    22    17    13 1
    23    14    15 1
    24    14    36 1
    25    15    16 1
    26    15    37 1
    27    15    38 1
    28    16    31 1
    29    16    30 1
    30    23    17 1
    31    17    18 1
    32    17    39 1
    33    20    18 1
    34    18    19 1
    35    18    40 1
    36    19    41 1
    37    22    20 1
    38    21    20 1
    39    20    42 1
    40    21    43 1
    41    24    22 1
    42    22    23 1
    43    22    44 1
    44    24    25 1
    45    24    45 1
    46    24    46 1
    47    29    25 1
    48    26    29 1
    49    26    47 1
    50    27    29 2
    51    29    28 2
    52    49     2 1
@<TRIPOS>SUBSTRUCTURE
     1 DSZ         1 TEMP              0 ****  ****    0 ROOT
