@<TRIPOS>MOLECULE
DSZ
   50    52     1     0     0
SMALL
bcc


@<TRIPOS>ATOM
      1 C            0.0000     0.0000     0.0000 c          1 DSZ       0.640100
      2 N            1.9960     1.2000    -0.6920 nz         1 DSZ       0.072400
      3 O           -0.6060     1.0350    -0.1780 o          1 DSZ      -0.597100
      4 N1           0.1990     1.5210    -9.6210 nb         1 DSZ      -0.653000
      5 C2          -1.0090     0.9930    -9.5340 ca         1 DSZ       0.644900
      6 N3          -1.4980     0.5290    -8.4020 nb         1 DSZ      -0.604000
      7 C4          -0.7800     0.5770    -7.2850 ca         1 DSZ       0.238800
      8 C5           0.5110     1.1300    -7.3250 ca         1 DSZ      -0.186200
      9 C6           0.9890     1.6110    -8.5560 ca         1 DSZ       0.602200
     10 N6           2.2530     2.1660    -8.6570 nv         1 DSZ      -0.645500
     11 N7           1.0160     1.0570    -6.0700 nc         1 DSZ      -0.491100
     12 C8           0.1380     0.5070    -5.2810 cd         1 DSZ       0.254700
     13 N9          -0.9870     0.1930    -5.9840 na         1 DSZ       0.203000
     14 CA           1.5070     0.0000     0.0000 c3         1 DSZ      -0.134500
     15 CB           2.0170     0.0000     1.4430 c3         1 DSZ      -0.146400
     16 CG           3.5180    -0.1230     1.4440 c          1 DSZ       0.955600
     17 C1'         -2.1960    -0.4370    -5.4480 c3         1 DSZ       0.156800
     18 C2'         -2.1510    -1.9710    -5.6590 c3         1 DSZ       0.129100
     19 O2'         -2.6580    -2.3230    -6.9480 oh         1 DSZ      -0.532800
     20 C3'         -3.0890    -2.4810    -4.5380 c3         1 DSZ       0.131100
     21 O3'         -4.3960    -2.7350    -5.0560 oh         1 DSZ      -0.543800
     22 C4'         -3.1250    -1.3240    -3.5210 c3         1 DSZ       0.153100
     23 O4'         -2.2480    -0.2960    -4.0120 os         1 DSZ      -0.402600
     24 C5'         -2.6390    -1.8150    -2.1560 c3         1 DSZ       0.246400
     25 O5'         -2.7860    -0.7690    -1.1940 os         1 DSZ      -0.438500
     26 NAT         -0.6730    -1.1500     0.2010 ns         1 DSZ      -0.320300
     27 OAX         -2.7280    -0.0860     1.0620 o          1 DSZ      -0.565800
     28 OAY         -2.7310    -2.4990     0.4080 o          1 DSZ      -0.565800
     29 SBE         -2.3300    -1.1500     0.2080 s6         1 DSZ       1.366100
     30 OD1          4.1890    -0.1450     2.6080 o          1 DSZ      -0.853800
     31 OD2          4.1190    -0.2030     0.3990 o          1 DSZ      -0.853800
     32 HN           2.4830     1.7850    -0.0420 hn         1 DSZ       0.233467
     33 HNA          1.2210     1.7020    -1.0770 hn         1 DSZ       0.233467
     34 HN6          3.0310     1.5930    -8.9160 hn         1 DSZ       0.283800
     35 HN6A         2.3800     3.1490    -8.5150 hn         1 DSZ       0.283800
     36 HA           1.8680    -0.8840    -0.5110 hx         1 DSZ       0.102700
     37 HB           1.5850    -0.8370     1.9780 hc         1 DSZ       0.048200
     38 HBA          1.7300     0.9250     1.9280 hc         1 DSZ       0.048200
     39 H1'         -3.0850    -0.0170    -5.9020 h2         1 DSZ       0.077700
     40 H2'         -1.1460    -2.3480    -5.5170 h1         1 DSZ       0.019700
     41 HO2'        -2.2220    -3.1010    -7.2560 ho         1 DSZ       0.394000
     42 H3'         -2.6770    -3.3720    -4.0800 h1         1 DSZ       0.012700
     43 HO3'        -4.6460    -3.6220    -4.8560 ho         1 DSZ       0.396000
     44 H4'         -4.1340    -0.9380    -3.4410 h1         1 DSZ       0.063700
     45 H5'         -1.5950    -2.0980    -2.2250 h1         1 DSZ       0.017700
     46 H5'A        -3.2260    -2.6720    -1.8500 h1         1 DSZ       0.017700
     47 HNAT        -0.1730    -1.9980     0.3830 hn         1 DSZ       0.250500
     48 H8           0.2810     0.3260    -4.2230 h5         1 DSZ       0.018800
     49 HN3          2.6160     0.9300    -1.4300 hn         1 DSZ       0.233467
     50 H2          -1.6200     0.9390   -10.4270 h5         1 DSZ       0.003100
@<TRIPOS>BOND
     1     1     3 2   
     2     1    14 1   
     3     1    26 1   
     4     2    14 1   
     5     2    32 1   
     6     2    33 1   
     7     2    49 1   
     8     4     5 ar  
     9     4     9 ar  
    10     5     6 ar  
    11     5    50 1   
    12     6     7 ar  
    13     7     8 ar  
    14     7    13 1   
    15     8     9 ar  
    16     8    11 1   
    17     9    10 1   
    18    10    34 1   
    19    10    35 1   
    20    11    12 2   
    21    12    13 1   
    22    12    48 1   
    23    13    17 1   
    24    14    15 1   
    25    14    36 1   
    26    15    16 1   
    27    15    37 1   
    28    15    38 1   
    29    16    30 1   
    30    16    31 1   
    31    17    18 1   
    32    17    23 1   
    33    17    39 1   
    34    18    19 1   
    35    18    20 1   
    36    18    40 1   
    37    19    41 1   
    38    20    21 1   
    39    20    22 1   
    40    20    42 1   
    41    21    43 1   
    42    22    23 1   
    43    22    24 1   
    44    22    44 1   
    45    24    25 1   
    46    24    45 1   
    47    24    46 1   
    48    25    29 1   
    49    26    29 1   
    50    26    47 1   
    51    27    29 2   
    52    28    29 2   
@<TRIPOS>SUBSTRUCTURE
     1 DSZ         1 TEMP              0 ****  ****    0 ROOT
