@<TRIPOS>MOLECULE
DT1
   51    54     1     0     0
SMALL
bcc


@<TRIPOS>ATOM
      1 O3           0.0000     0.0000     0.0000 o          1 DT1      -0.502300
      2 S1           1.4210     0.0000     0.0000 sy         1 DT1       0.939200
      3 O2           2.2440     0.0000     1.1590 o          1 DT1      -0.502300
      4 N6           1.8700    -1.3350    -0.8700 nz         1 DT1      -0.132500
      5 C16          1.9000     1.4190    -0.9280 ca         1 DT1      -0.282500
      6 C15          1.0220     1.9740    -1.8410 ca         1 DT1       0.061000
      7 C17          3.1500     1.9780    -0.7380 ca         1 DT1       0.061000
      8 C18          3.5310     3.0870    -1.4670 ca         1 DT1      -0.173000
      9 C14          1.3940     3.0870    -2.5700 ca         1 DT1      -0.173000
     10 C13          2.6520     3.6480    -2.3860 ca         1 DT1       0.128600
     11 N5           3.0320     4.7740    -3.1210 nu         1 DT1      -0.179000
     12 C9           2.2190     5.2420    -4.1320 cc         1 DT1      -0.058700
     13 N2           1.8820     4.4360    -5.1830 na         1 DT1       0.433200
     14 C10          1.0710     4.9040    -6.1790 cc         1 DT1       0.279500
     15 N1           0.6100     6.1590    -6.1430 nc         1 DT1      -0.617000
     16 N4           0.9090     3.9140    -7.0500 nd         1 DT1      -0.380300
     17 C11          1.5780     2.8420    -6.6400 cd         1 DT1       0.654200
     18 N3           2.1830     3.1070    -5.5090 nc         1 DT1      -0.809100
     19 C8           1.7430     6.5250    -4.1040 cd         1 DT1      -0.253300
     20 C7           0.9200     6.9700    -5.1460 cd         1 DT1       0.653600
     21 C20         -0.3540     8.3890    -6.3090 c3         1 DT1       0.185400
     22 O1           0.4400     8.2370    -5.1320 os         1 DT1      -0.382100
     23 C1          -0.9300     9.8060    -6.3560 c3         1 DT1      -0.062700
     24 C2          -1.6770    10.0110    -7.6760 c3         1 DT1      -0.020900
     25 C3          -2.2510    11.4280    -7.7220 c3         1 DT1      -0.021900
     26 C4          -3.2190    11.6240    -6.5520 c3         1 DT1      -0.025400
     27 C5          -2.4720    11.4200    -5.2330 c3         1 DT1      -0.021900
     28 C6          -1.8970    10.0030    -5.1860 c3         1 DT1      -0.020900
     29 H6N1         1.6130    -2.1630    -0.3690 hn         1 DT1       0.313133
     30 H6N2         2.8610    -1.3250    -1.0100 hn         1 DT1       0.313133
     31 H15          0.0420     1.5370    -1.9840 ha         1 DT1       0.123500
     32 H17          3.8350     1.5410    -0.0220 ha         1 DT1       0.123500
     33 H18          4.5110     3.5230    -1.3190 ha         1 DT1       0.134000
     34 H14          0.7060     3.5210    -3.2850 ha         1 DT1       0.134000
     35 H5           3.9070     5.2220    -2.9340 hn         1 DT1       0.310800
     36 H11          1.6170     1.8940    -7.1620 h5         1 DT1       0.034800
     37 H8           1.9980     7.1870    -3.2850 ha         1 DT1       0.154000
     38 H201         0.2620     8.2210    -7.1840 h1         1 DT1       0.029700
     39 H202        -1.1650     7.6710    -6.2940 h1         1 DT1       0.029700
     40 H1          -0.1270    10.5290    -6.2820 hc         1 DT1       0.039700
     41 H2C1        -0.9900     9.8740    -8.5030 hc         1 DT1       0.017450
     42 H2C2        -2.4850     9.2930    -7.7480 hc         1 DT1       0.017450
     43 H3C1        -2.7820    11.5700    -8.6550 hc         1 DT1       0.016700
     44 H3C2        -1.4440    12.1460    -7.6460 hc         1 DT1       0.016700
     45 H4C1        -3.6230    12.6290    -6.5850 hc         1 DT1       0.017200
     46 H4C2        -4.0230    10.9030    -6.6260 hc         1 DT1       0.017200
     47 H5C1        -3.1580    11.5580    -4.4060 hc         1 DT1       0.016700
     48 H5C2        -1.6640    12.1390    -5.1620 hc         1 DT1       0.016700
     49 H6C1        -2.7040     9.2850    -5.2620 hc         1 DT1       0.017450
     50 H6C2        -1.3670     9.8600    -4.2530 hc         1 DT1       0.017450
     51 H63          1.4120    -1.3240    -1.7600 hn         1 DT1       0.313133
@<TRIPOS>BOND
     1     1     2 2   
     2     2     3 2   
     3     2     4 1   
     4     2     5 1   
     5     4    29 1   
     6     4    30 1   
     7     4    51 1   
     8     5     6 ar  
     9     5     7 ar  
    10     6     9 ar  
    11     6    31 1   
    12     7     8 ar  
    13     7    32 1   
    14     8    10 ar  
    15     8    33 1   
    16     9    10 ar  
    17     9    34 1   
    18    10    11 1   
    19    11    12 1   
    20    11    35 1   
    21    12    13 1   
    22    12    19 2   
    23    13    14 1   
    24    13    18 1   
    25    14    15 1   
    26    14    16 2   
    27    15    20 2   
    28    16    17 1   
    29    17    18 2   
    30    17    36 1   
    31    19    20 1   
    32    19    37 1   
    33    20    22 1   
    34    21    22 1   
    35    21    23 1   
    36    21    38 1   
    37    21    39 1   
    38    23    24 1   
    39    23    28 1   
    40    23    40 1   
    41    24    25 1   
    42    24    41 1   
    43    24    42 1   
    44    25    26 1   
    45    25    43 1   
    46    25    44 1   
    47    26    27 1   
    48    26    45 1   
    49    26    46 1   
    50    27    28 1   
    51    27    47 1   
    52    27    48 1   
    53    28    49 1   
    54    28    50 1   
@<TRIPOS>SUBSTRUCTURE
     1 DT1         1 TEMP              0 ****  ****    0 ROOT
