@<TRIPOS>MOLECULE
molecule
   49    52     1     0     0
SMALL
bcc


@<TRIPOS>ATOM
      1 O2           0.0000     0.0000     0.0000 o          1 DT2      -0.527800
      2 S1           1.4210     0.0000     0.0000 sy         1 DT2       1.232200
      3 O3           2.2420     0.0000     1.1600 o          1 DT2      -0.527800
      4 N6           1.8710    -1.3350    -0.8700 nz         1 DT2      -0.805500
      5 C16          1.9000     1.4200    -0.9260 ca         1 DT2      -0.391500
      6 C15          1.0230     1.9760    -1.8400 ca         1 DT2       0.011000
      7 C14          1.3960     3.0890    -2.5670 ca         1 DT2      -0.184500
      8 C13          2.6530     3.6500    -2.3810 ca         1 DT2       0.288600
      9 C18          3.5310     3.0900    -1.4620 ca         1 DT2      -0.184500
     10 C17          3.1500     1.9800    -0.7330 ca         1 DT2       0.011000
     11 N5           3.0320     4.7770    -3.1160 nu         1 DT2      -0.657000
     12 C9           2.2220     5.2460    -4.1280 cc         1 DT2       0.277300
     13 N2           1.8850     4.4390    -5.1800 na         1 DT2      -0.041800
     14 N3           2.1890     3.1110    -5.5060 nc         1 DT2      -0.657100
     15 C11          1.5860     2.8460    -6.6390 cd         1 DT2       0.603200
     16 C10          1.0770     4.9070    -6.1770 cc         1 DT2       0.513500
     17 N4           0.9170     3.9170    -7.0490 nd         1 DT2      -0.444300
     18 N1           0.6140     6.1620    -6.1410 nc         1 DT2      -0.752000
     19 C7           0.9220     6.9730    -5.1420 cd         1 DT2       0.754200
     20 C8           1.7450     6.5270    -4.0980 cd         1 DT2      -0.346300
     21 N7           0.4310     8.2660    -5.1280 nu         1 DT2      -0.877900
     22 C1          -0.4290     8.7360    -6.2180 c3         1 DT2       0.234500
     23 C2          -1.3130     9.8780    -5.7150 c3         1 DT2      -0.093900
     24 C3          -2.2100    10.3680    -6.8530 c3         1 DT2      -0.075900
     25 C4          -1.3420    10.8660    -8.0090 c3         1 DT2      -0.085400
     26 C5          -0.4580     9.7240    -8.5130 c3         1 DT2      -0.075900
     27 C6           0.4400     9.2350    -7.3750 c3         1 DT2      -0.093900
     28 H6N1         2.8620    -1.3240    -1.0100 hn         1 DT2       0.490467
     29 H6N2         1.6140    -2.1630    -0.3690 hn         1 DT2       0.490467
     30 H15          0.0430     1.5380    -1.9840 ha         1 DT2       0.156500
     31 H14          0.7090     3.5240    -3.2830 ha         1 DT2       0.166500
     32 H18          4.5110     3.5260    -1.3120 ha         1 DT2       0.166500
     33 H17          3.8340     1.5420    -0.0160 ha         1 DT2       0.156500
     34 H5           3.8960     5.2400    -2.9110 hn         1 DT2       0.480800
     35 H11          1.6270     1.8980    -7.1610 h5         1 DT2       0.092800
     36 H8           1.9990     7.1890    -3.2790 ha         1 DT2       0.167000
     37 H7           0.6470     8.8750    -4.3640 hn         1 DT2       0.453800
     38 H1          -1.0560     7.9230    -6.5650 h1         1 DT2       0.090700
     39 H2C1        -1.9290     9.5240    -4.8980 hc         1 DT2       0.048200
     40 H2C2        -0.6870    10.6940    -5.3740 hc         1 DT2       0.048200
     41 H3C1        -2.8340     9.5520    -7.1970 hc         1 DT2       0.050700
     42 H3C2        -2.8340    11.1790    -6.4960 hc         1 DT2       0.050700
     43 H4C1        -1.9790    11.2110    -8.8150 hc         1 DT2       0.047700
     44 H4C2        -0.7160    11.6800    -7.6640 hc         1 DT2       0.047700
     45 H5C1        -1.0840     8.9080    -8.8540 hc         1 DT2       0.050700
     46 H5C2         0.1580    10.0790    -9.3300 hc         1 DT2       0.050700
     47 H6C1         1.0620    10.0520    -7.0310 hc         1 DT2       0.048200
     48 H6C2         1.0640     8.4240    -7.7320 hc         1 DT2       0.048200
     49 H63          1.4120    -1.3250    -1.7600 hn         1 DT2       0.490467
@<TRIPOS>BOND
     1     1     2 2
     2     2     3 2
     3     2     4 1
     4     2     5 1
     5     4    28 1
     6     4    29 1
     7     5     6 ar
     8     5    10 ar
     9     6     7 ar
    10     6    30 1
    11     7     8 ar
    12     7    31 1
    13     8     9 ar
    14     8    11 1
    15     9    10 ar
    16     9    32 1
    17    10    33 1
    18    11    12 1
    19    11    34 1
    20    12    13 1
    21    12    20 2
    22    13    14 1
    23    13    16 1
    24    14    15 2
    25    15    17 1
    26    15    35 1
    27    16    17 2
    28    16    18 1
    29    18    19 2
    30    19    20 1
    31    19    21 1
    32    20    36 1
    33    21    22 1
    34    21    37 1
    35    22    23 1
    36    22    27 1
    37    22    38 1
    38    23    24 1
    39    23    39 1
    40    23    40 1
    41    24    25 1
    42    24    41 1
    43    24    42 1
    44    25    26 1
    45    25    43 1
    46    25    44 1
    47    26    27 1
    48    26    45 1
    49    26    46 1
    50    27    47 1
    51    27    48 1
    52    49     4 1
@<TRIPOS>SUBSTRUCTURE
     1 DT2         1 TEMP              0 ****  ****    0 ROOT
