@<TRIPOS>MOLECULE
DT3
   20    19     1     0     0
SMALL
bcc


@<TRIPOS>ATOM
      1 C2          1.5200    0.0210   -0.1580 c3        1 DT3      0.139100
      2 O2         -0.3210    1.3730    0.5390 oh        1 DT3     -0.639800
      3 C3         -0.0160    0.1060   -0.0230 c3        1 DT3      0.213100
      4 O3          2.0830   -0.0180    1.1450 oh        1 DT3     -0.577800
      5 C4         -0.5650   -1.0480    0.7800 c3        1 DT3     -0.331600
      6 S2         -2.3230   -1.2840    0.6040 s6        1 DT3      1.430800
      7 O4         -2.4970   -1.7470   -0.7200 o         1 DT3     -0.749867
      8 O5         -2.8540    0.0150    0.8290 o         1 DT3     -0.749867
      9 O6         -2.6550   -2.2290    1.5970 o         1 DT3     -0.749867
     10 C1          2.0370    1.2180   -0.9430 c3        1 DT3     -0.011300
     11 S1          3.7950    1.2360   -1.1890 sh        1 DT3     -0.435900
     12 H2          1.7710   -0.9320   -0.7060 h1        1 DT3      0.039700
     13 HO2        -1.2410    1.3330    0.8510 ho        1 DT3      0.451000
     14 H3         -0.4430    0.0710   -1.0700 h1        1 DT3      0.039700
     15 HO3         3.0050   -0.2810    1.0270 ho        1 DT3      0.380000
     16 H41        -0.0510   -1.9870    0.4670 h1        1 DT3      0.083200
     17 H42        -0.3180   -0.8870    1.8570 h1        1 DT3      0.083200
     18 H11         1.6000    1.2000   -1.9710 h1        1 DT3      0.091200
     19 H12         1.7080    2.1550   -0.4320 h1        1 DT3      0.091200
     20 HS1         4.1780    1.6250    0.0150 hs        1 DT3      0.203800
@<TRIPOS>BOND
     1    1    3 1   
     2    1    4 1   
     3    1   10 1   
     4    1   12 1   
     5    2    3 1   
     6    2   13 1   
     7    3    5 1   
     8    3   14 1   
     9    4   15 1   
    10    5    6 1   
    11    5   16 1   
    12    5   17 1   
    13    6    7 1   
    14    6    8 1   
    15    6    9 1   
    16   10   11 1   
    17   10   18 1   
    18   10   19 1   
    19   11   20 1   
@<TRIPOS>SUBSTRUCTURE
     1 DT3         1 TEMP              0 ****  ****    0 ROOT
