@<TRIPOS>MOLECULE
molecule
   20    19     1     0     0
SMALL
bcc


@<TRIPOS>ATOM
      1 C2           1.5310     0.0000     0.0000 c3         1 DT3       0.155100
      2 O2          -0.4770     1.2210     0.5690 oh         1 DT3      -0.580800
      3 C3           0.0000     0.0000     0.0000 c3         1 DT3       0.186100
      4 O3           2.0070     0.0000     1.3480 oh         1 DT3      -0.575800
      5 C4          -0.5090    -1.1820     0.8270 c3         1 DT3      -0.265600
      6 S2          -2.3170    -1.2700     0.7060 s6         1 DT3       1.258800
      7 O4          -2.6970    -1.4500    -0.6860 o          1 DT3      -0.708200
      8 O5          -2.8940    -0.0350     1.2140 o          1 DT3      -0.708200
      9 O6          -2.7990    -2.3940     1.4940 o          1 DT3      -0.708200
     10 C1           2.0410     1.2490    -0.7210 c3         1 DT3       0.028700
     11 S1           3.8480     1.1780    -0.8500 sh         1 DT3      -0.467900
     12 H2           1.8920    -0.8850    -0.5110 h1         1 DT3       0.040700
     13 HO2         -0.9700     1.6980    -0.0780 ho         1 DT3       0.399000
     14 H3          -0.3610    -0.0890    -1.0180 h1         1 DT3       0.046700
     15 HO3          2.7800    -0.5370     1.4080 ho         1 DT3       0.391000
     16 H41         -0.0770    -2.1000     0.4480 h1         1 DT3       0.081700
     17 H42         -0.2230    -1.0480     1.8630 h1         1 DT3       0.081700
     18 H11          1.6100     1.2950    -1.7130 h1         1 DT3       0.067700
     19 H12          1.7540     2.1310    -0.1620 h1         1 DT3       0.067700
     20 HS1          4.2760     2.1660    -1.6260 hs         1 DT3       0.208800
@<TRIPOS>BOND
     1     1     3 1
     2     1     4 1
     3     1    10 1
     4     1    12 1
     5     2     3 1
     6     2    13 1
     7     3     5 1
     8     3    14 1
     9     4    15 1
    10     5     6 1
    11     5    16 1
    12     5    17 1
    13     6     7 1
    14     6     8 1
    15     6     9 1
    16    10    11 1
    17    10    18 1
    18    10    19 1
    19    11    20 1
@<TRIPOS>SUBSTRUCTURE
     1 DT3         1 TEMP              0 ****  ****    0 ROOT
