@<TRIPOS>MOLECULE
DT4
   52    55     1     0     0
SMALL
bcc


@<TRIPOS>ATOM
      1 O2           0.0000     0.0000     0.0000 o          1 DT4      -0.494300
      2 S1           1.4210     0.0000     0.0000 sy         1 DT4       0.940200
      3 O3           2.2440     0.0000     1.1590 o          1 DT4      -0.494300
      4 N6           1.8720    -1.3340    -0.8720 nz         1 DT4      -0.133500
      5 C16          1.8990     1.4210    -0.9270 ca         1 DT4      -0.276500
      6 C15          1.0210     1.9760    -1.8390 ca         1 DT4       0.063000
      7 C14          1.3920     3.0900    -2.5660 ca         1 DT4      -0.172500
      8 C13          2.6500     3.6520    -2.3810 ca         1 DT4       0.123600
      9 C18          3.5310     3.0880    -1.4670 ca         1 DT4      -0.172500
     10 C17          3.1510     1.9770    -0.7390 ca         1 DT4       0.063000
     11 N5           3.0280     4.7790    -3.1160 nu         1 DT4      -0.194000
     12 C9           4.2120     5.4250    -2.8270 cc         1 DT4      -0.015700
     13 N2           4.4420     5.9250    -1.5740 na         1 DT4       0.423200
     14 N3           3.6890     5.9410    -0.3930 nc         1 DT4      -0.779100
     15 C11          4.4060     6.5600     0.5120 cd         1 DT4       0.668200
     16 C10          5.6170     6.5630    -1.2920 cc         1 DT4       0.278500
     17 N4           5.5640     6.9370    -0.0180 nd         1 DT4      -0.392300
     18 N1           6.5560     6.7030    -2.2350 nc         1 DT4      -0.638000
     19 C7           6.3660     6.2370    -3.4590 cd         1 DT4       0.540200
     20 C8           5.1730     5.5760    -3.7860 cd         1 DT4      -0.312300
     21 N7           7.3500     6.3970    -4.4180 nu         1 DT4      -0.480900
     22 C1           8.5970     7.0880    -4.0790 c3         1 DT4       0.126500
     23 C2           9.7120     6.6170    -5.0160 c3         1 DT4      -0.029400
     24 C3          11.0140     7.3370    -4.6630 c3         1 DT4      -0.020400
     25 C4          10.8200     8.8470    -4.8200 c3         1 DT4      -0.088500
     26 N8          12.0710     9.5390    -4.4800 nz         1 DT4       0.080400
     27 C5           9.7050     9.3180    -3.8830 c3         1 DT4      -0.020400
     28 C6           8.4040     8.5970    -4.2370 c3         1 DT4      -0.029400
     29 H6N1         1.4110    -1.3230    -1.7610 hn         1 DT4       0.312800
     30 H6N2         1.6130    -2.1620    -0.3730 hn         1 DT4       0.312800
     31 H15          0.0410     1.5370    -1.9830 ha         1 DT4       0.125500
     32 H14          0.7030     3.5260    -3.2800 ha         1 DT4       0.132500
     33 H18          4.5120     3.5230    -1.3200 ha         1 DT4       0.132500
     34 H17          3.8380     1.5370    -0.0260 ha         1 DT4       0.125500
     35 H5           2.4310     5.1280    -3.8400 hn         1 DT4       0.313800
     36 H11          4.1010     6.7370     1.5360 h5         1 DT4       0.044800
     37 H8           5.0150     5.1930    -4.7870 ha         1 DT4       0.144000
     38 H7           7.2200     6.0230    -5.3370 hn         1 DT4       0.303800
     39 H1           8.8710     6.8660    -3.0550 h1         1 DT4       0.070700
     40 H2C1         9.4410     6.8450    -6.0400 hc         1 DT4       0.043200
     41 H2C2         9.8500     5.5480    -4.9030 hc         1 DT4       0.043200
     42 H3C1        11.8010     7.0040    -5.3280 hc         1 DT4       0.038950
     43 H3C2        11.2820     7.1140    -3.6370 hc         1 DT4       0.038950
     44 H4          10.5460     9.0700    -5.8440 hx         1 DT4       0.095700
     45 H8N1        12.7990     9.2300    -5.0930 hn         1 DT4       0.226800
     46 H8N2        12.3200     9.3300    -3.5330 hn         1 DT4       0.226800
     47 H5C1         9.9760     9.0900    -2.8590 hc         1 DT4       0.038950
     48 H5C2         9.5670    10.3870    -3.9960 hc         1 DT4       0.038950
     49 H6C1         7.6160     8.9300    -3.5720 hc         1 DT4       0.043200
     50 H6C2         8.1360     8.8200    -5.2630 hc         1 DT4       0.043200
     51 H63          2.8620    -1.3200    -1.0160 hn         1 DT4       0.312800
     52 H83         11.9420    10.5270    -4.5730 hn         1 DT4       0.226800
@<TRIPOS>BOND
     1     1     2 2   
     2     2     3 2   
     3     2     4 1   
     4     2     5 1   
     5     4    29 1   
     6     4    30 1   
     7     4    51 1   
     8     5     6 ar  
     9     5    10 ar  
    10     6     7 ar  
    11     6    31 1   
    12     7     8 ar  
    13     7    32 1   
    14     8     9 ar  
    15     8    11 1   
    16     9    10 ar  
    17     9    33 1   
    18    10    34 1   
    19    11    12 1   
    20    11    35 1   
    21    12    13 1   
    22    12    20 2   
    23    13    14 1   
    24    13    16 1   
    25    14    15 2   
    26    15    17 1   
    27    15    36 1   
    28    16    17 2   
    29    16    18 1   
    30    18    19 2   
    31    19    20 1   
    32    19    21 1   
    33    20    37 1   
    34    21    22 1   
    35    21    38 1   
    36    22    23 1   
    37    22    28 1   
    38    22    39 1   
    39    23    24 1   
    40    23    40 1   
    41    23    41 1   
    42    24    25 1   
    43    24    42 1   
    44    24    43 1   
    45    25    26 1   
    46    25    27 1   
    47    25    44 1   
    48    26    45 1   
    49    26    46 1   
    50    26    52 1   
    51    27    28 1   
    52    27    47 1   
    53    27    48 1   
    54    28    49 1   
    55    28    50 1   
@<TRIPOS>SUBSTRUCTURE
     1 DT4         1 TEMP              0 ****  ****    0 ROOT
