@<TRIPOS>MOLECULE
molecule
   48    51     1     0     0
SMALL
bcc


@<TRIPOS>ATOM
      1 N6           0.0000     0.0000     0.0000 nz         1 DT5      -0.805500
      2 S1           1.6560     0.0000     0.0000 sy         1 DT5       1.231200
      3 O2           2.0410     0.0000     1.3680 o          1 DT5      -0.525800
      4 O3           2.0420     0.9720    -0.9630 o          1 DT5      -0.525800
      5 C16          2.1830    -1.5520    -0.6460 ca         1 DT5      -0.389500
      6 C15          2.3910    -1.6980    -2.0060 ca         1 DT5       0.012000
      7 C17          2.3940    -2.6180     0.2070 ca         1 DT5       0.012000
      8 C18          2.8030    -3.8370    -0.2970 ca         1 DT5      -0.184000
      9 C14          2.8030    -2.9140    -2.5160 ca         1 DT5      -0.184000
     10 C13          3.0110    -3.9880    -1.6620 ca         1 DT5       0.286600
     11 N5           3.4290    -5.2200    -2.1750 nu         1 DT5      -0.656000
     12 C9           3.4970    -5.4110    -3.5390 cc         1 DT5       0.271300
     13 N2           2.3860    -5.2490    -4.3190 na         1 DT5      -0.032800
     14 C10          2.4600    -5.4350    -5.6710 cc         1 DT5       0.500500
     15 N1           3.6170    -5.7880    -6.2440 nc         1 DT5      -0.751000
     16 N4           1.2480    -5.2060    -6.1660 nd         1 DT5      -0.432300
     17 C11          0.4170    -4.8790    -5.1820 cd         1 DT5       0.603200
     18 N3           1.0620    -4.8880    -4.0410 nc         1 DT5      -0.646100
     19 C8           4.6760    -5.7720    -4.1330 cd         1 DT5      -0.308300
     20 C7           4.7100    -5.9580    -5.5200 cd         1 DT5       0.715600
     21 O1           5.8700    -6.3160    -6.1230 os         1 DT5      -0.386100
     22 C1           5.5900    -6.4280    -7.5210 c3         1 DT5       0.106100
     23 C2           6.8490    -6.0860    -8.3210 c3         1 DT5      -0.086400
     24 C3           6.5500    -6.2070    -9.8170 c3         1 DT5      -0.075400
     25 C4           6.1130    -7.6370   -10.1370 c3         1 DT5      -0.085400
     26 C5           4.8550    -7.9790    -9.3360 c3         1 DT5      -0.075400
     27 C6           5.1540    -7.8580    -7.8400 c3         1 DT5      -0.086400
     28 H6          -0.3340    -0.7500     0.5730 hn         1 DT5       0.490467
     29 H7          -0.3340    -0.1210    -0.9360 hn         1 DT5       0.490467
     30 H15          2.2280    -0.8590    -2.6710 ha         1 DT5       0.157500
     31 H17          2.2320    -2.5000     1.2720 ha         1 DT5       0.157500
     32 H18          2.9660    -4.6740     0.3720 ha         1 DT5       0.166000
     33 H14          2.9650    -3.0280    -3.5810 ha         1 DT5       0.166000
     34 H5           3.6550    -5.9700    -1.5530 hn         1 DT5       0.482800
     35 H11         -0.6330    -4.6410    -5.3050 h5         1 DT5       0.096800
     36 H8           5.5700    -5.9110    -3.5380 ha         1 DT5       0.186000
     37 H1           4.7960    -5.7420    -7.7910 h1         1 DT5       0.102700
     38 H2C1         7.6410    -6.7760    -8.0560 hc         1 DT5       0.052450
     39 H2C2         7.1550    -5.0720    -8.0960 hc         1 DT5       0.052450
     40 H3C1         7.4420    -5.9680   -10.3820 hc         1 DT5       0.050950
     41 H3C2         5.7540    -5.5200   -10.0810 hc         1 DT5       0.050950
     42 H4C1         6.9070    -8.3240    -9.8690 hc         1 DT5       0.048700
     43 H4C2         5.8990    -7.7190   -11.1950 hc         1 DT5       0.048700
     44 H5C1         4.5500    -8.9930    -9.5610 hc         1 DT5       0.050950
     45 H5C2         4.0620    -7.2900    -9.6010 hc         1 DT5       0.050950
     46 H6C1         5.9510    -8.5440    -7.5760 hc         1 DT5       0.052450
     47 H6C2         4.2620    -8.0980    -7.2740 hc         1 DT5       0.052450
     48 H63         -0.3340     0.8730     0.3580 hn         1 DT5       0.490467
@<TRIPOS>BOND
     1     1     2 1
     2     1    28 1
     3     1    29 1
     4     2     3 2
     5     2     4 2
     6     2     5 1
     7     5     6 ar
     8     5     7 ar
     9     6     9 ar
    10     6    30 1
    11     7     8 ar
    12     7    31 1
    13     8    10 ar
    14     8    32 1
    15     9    10 ar
    16     9    33 1
    17    10    11 1
    18    11    12 1
    19    11    34 1
    20    12    13 1
    21    12    19 2
    22    13    14 1
    23    13    18 1
    24    14    15 1
    25    14    16 2
    26    15    20 2
    27    16    17 1
    28    17    18 2
    29    17    35 1
    30    19    20 1
    31    19    36 1
    32    20    21 1
    33    21    22 1
    34    22    23 1
    35    22    27 1
    36    22    37 1
    37    23    24 1
    38    23    38 1
    39    23    39 1
    40    24    25 1
    41    24    40 1
    42    24    41 1
    43    25    26 1
    44    25    42 1
    45    25    43 1
    46    26    27 1
    47    26    44 1
    48    26    45 1
    49    27    46 1
    50    27    47 1
    51    48     1 1
@<TRIPOS>SUBSTRUCTURE
     1 DT5         1 TEMP              0 ****  ****    0 ROOT
