@<TRIPOS>MOLECULE
DT7
   35    36     1     0     0
SMALL
bcc


@<TRIPOS>ATOM
      1 CAA          0.0000     0.0000     0.0000 c3         1 DT7       0.242700
      2 CAB          5.6040     0.0060     0.3090 c3         1 DT7       0.243700
      3 NAD          4.2170     0.3630     8.5180 nz         1 DT7      -0.158500
      4 OAE          2.2480     1.7070     7.8810 o          1 DT7      -0.494800
      5 OAF          4.4710     2.1380     6.8230 o          1 DT7      -0.494800
      6 CAG          1.2980     0.0020     2.3720 ca         1 DT7      -0.177000
      7 CAH          4.0520    -0.0030     2.5250 ca         1 DT7      -0.170000
      8 CAI          1.0370     0.0160     4.8360 c3         1 DT7       0.029900
      9 CAJ          1.7990    -0.4750     6.0650 c3         1 DT7       0.229800
     10 OAK          1.4290     0.0000     0.0000 os         1 DT7      -0.281900
     11 OAL          4.1840     0.0060     0.1510 os         1 DT7      -0.279900
     12 CAM          1.9200     0.0000     3.6160 ca         1 DT7      -0.079300
     13 CAN          2.0470     0.0010     1.2110 ca         1 DT7       0.153100
     14 CAO          3.4360     0.0020     1.2870 ca         1 DT7       0.142100
     15 CAP          3.2950    -0.0090     3.6890 ca         1 DT7      -0.131300
     16 CAQ          4.0320    -0.0410     5.0050 c3         1 DT7       0.302100
     17 NAR          3.0950     0.2200     6.1020 n3         1 DT7      -0.514500
     18 SAS          3.4810     1.2580     7.3340 s6         1 DT7       1.010800
     19 HAA         -0.3610    -0.0010    -1.0210 h1         1 DT7       0.002367
     20 HAAA        -0.3610     0.8850     0.5100 h1         1 DT7       0.002367
     21 HAAB        -0.3610    -0.8840     0.5110 h1         1 DT7       0.002367
     22 HAB          5.9070     0.8880     0.8600 h1         1 DT7       0.000367
     23 HABA         5.9070    -0.8810     0.8540 h1         1 DT7       0.000367
     24 HABB         6.0760     0.0090    -0.6660 h1         1 DT7       0.000367
     25 HNAD         4.4490     0.9560     9.2900 hn         1 DT7       0.316467
     26 HNAA         3.5960    -0.3590     8.8260 hn         1 DT7       0.316467
     27 HAG          0.2160     0.0050     2.3130 ha         1 DT7       0.134000
     28 HAH          5.1330    -0.0010     2.5880 ha         1 DT7       0.126000
     29 HAI          0.1840    -0.6300     4.6660 hc         1 DT7       0.040700
     30 HAIA         0.6940     1.0280     5.0130 hc         1 DT7       0.040700
     31 HAJ          1.2350    -0.2230     6.9560 h1         1 DT7       0.033200
     32 HAJA         1.9710    -1.5410     5.9730 h1         1 DT7       0.033200
     33 HAQ          4.4810    -1.0180     5.1420 h1         1 DT7       0.030200
     34 HAQA         4.8040     0.7190     5.0030 h1         1 DT7       0.030200
     35 HAD3         5.0720    -0.0200     8.1640 hn         1 DT7       0.316467
@<TRIPOS>BOND
     1     1    10 1   
     2     1    19 1   
     3     1    20 1   
     4     1    21 1   
     5     2    11 1   
     6     2    22 1   
     7     2    23 1   
     8     2    24 1   
     9     3    18 1   
    10     3    25 1   
    11     3    26 1   
    12     3    35 1   
    13     4    18 2   
    14     5    18 2   
    15     6    12 ar  
    16     6    13 ar  
    17     6    27 1   
    18     7    14 ar  
    19     7    15 ar  
    20     7    28 1   
    21     8     9 1   
    22     8    12 1   
    23     8    29 1   
    24     8    30 1   
    25     9    17 1   
    26     9    31 1   
    27     9    32 1   
    28    10    13 1   
    29    11    14 1   
    30    12    15 ar  
    31    13    14 ar  
    32    15    16 1   
    33    16    17 1   
    34    16    33 1   
    35    16    34 1   
    36    17    18 1   
@<TRIPOS>SUBSTRUCTURE
     1 DT7         1 TEMP              0 ****  ****    0 ROOT
