@<TRIPOS>MOLECULE
DT8
   68    72     1     0     0
SMALL
bcc


@<TRIPOS>ATOM
      1 O34          0.0000     0.0000     0.0000 o          1 DT8      -0.624100
      2 C21          1.2340     0.0000     0.0000 c          1 DT8       0.615100
      3 N35          2.0170    -0.0000    -1.1550 n          1 DT8      -0.186800
      4 C37          1.4360     0.0000    -2.4920 c3         1 DT8       0.083800
      5 C36          3.4780     0.0010    -1.1090 c3         1 DT8       0.083800
      6 C17          1.9670     0.0000     1.3080 c3         1 DT8      -0.138700
      7 C18          2.2550     1.4390     1.7420 c3         1 DT8      -0.008400
      8 C19          2.9110     1.5010     3.1190 c3         1 DT8      -0.039400
      9 C13          2.0850     0.7530     4.1710 c3         1 DT8       0.004700
     10 N12          2.7230     0.8160     5.4660 ns         1 DT8      -0.186900
     11 C11          2.5140     1.8680     6.3430 c          1 DT8       0.632300
     12 O14          1.7870     2.8330     6.1240 o          1 DT8      -0.647100
     13 C8           3.2620     1.8000     7.6250 cc         1 DT8      -0.320300
     14 N7           3.1500     2.7520     8.5580 na         1 DT8       0.441600
     15 C5           3.9560     2.4110     9.6200 ca         1 DT8      -0.246200
     16 C4           4.1850     3.0750    10.8290 ca         1 DT8      -0.086000
     17 C3           5.0700     2.4820    11.7350 ca         1 DT8      -0.090000
     18 C2           5.6990     1.2750    11.4380 ca         1 DT8      -0.066600
     19 Cl1          6.7840     0.5740    12.5790 cl         1 DT8      -0.027400
     20 C9           4.1070     0.8280     8.0030 cd         1 DT8      -0.166200
     21 C6           4.5720     1.2010     9.2950 ca         1 DT8      -0.080800
     22 C1           5.4600     0.6220    10.2230 ca         1 DT8      -0.040000
     23 C16          1.1450    -0.7500     2.3630 c3         1 DT8      -0.025400
     24 C15          1.7870    -0.6980     3.7540 c3         1 DT8       0.012700
     25 N20          2.9660    -1.5350     3.7970 ns         1 DT8      -0.196900
     26 C22          2.9090    -2.8860     4.0980 c          1 DT8       0.515600
     27 O32          1.8800    -3.5050     4.3550 o          1 DT8      -0.619100
     28 C23          4.1760    -3.5810     4.1250 cc         1 DT8       0.345900
     29 S27          4.2330    -5.2640     4.4890 ss         1 DT8      -0.145300
     30 C26          5.9210    -5.2090     4.3060 cc         1 DT8      -0.127700
     31 C28          6.8460    -6.3650     4.4940 c3         1 DT8       0.256100
     32 N29          8.1670    -6.0730     3.8830 n3         1 DT8      -0.547600
     33 C33          9.1280    -7.1170     4.2320 c3         1 DT8       0.189100
     34 C30          8.6720    -4.7400     4.2830 c3         1 DT8       0.151800
     35 C31          7.7610    -3.6050     3.7610 c3         1 DT8      -0.047700
     36 C25          6.3290    -3.9300     3.9930 cd         1 DT8       0.314600
     37 N24          5.3280    -2.9910     3.8840 nd         1 DT8      -0.539000
     38 H371         2.0110    -0.6540    -3.1360 h1         1 DT8       0.010200
     39 H372         1.4510     1.0070    -2.8920 h1         1 DT8       0.010200
     40 H373         0.4120    -0.3520    -2.4400 h1         1 DT8       0.010200
     41 H361         3.8710     0.0670    -2.1160 h1         1 DT8       0.010200
     42 H362         3.8250    -0.9150    -0.6460 h1         1 DT8       0.010200
     43 H363         3.8200     0.8510    -0.5310 h1         1 DT8       0.010200
     44 H17          2.9110    -0.5150     1.1800 hc         1 DT8       0.036700
     45 H181         1.3220     1.9890     1.7720 hc         1 DT8       0.025700
     46 H182         2.9160     1.8970     1.0170 hc         1 DT8       0.025700
     47 H191         3.0050     2.5380     3.4170 hc         1 DT8       0.023700
     48 H192         3.8960     1.0540     3.0600 hc         1 DT8       0.023700
     49 H13          1.1330     1.2630     4.2510 h1         1 DT8       0.062700
     50 HN12         3.3360     0.0750     5.7390 hn         1 DT8       0.188500
     51 HN7          2.5780     3.5710     8.4940 hn         1 DT8       0.133700
     52 H4           3.7590     4.0320    11.1050 ha         1 DT8       0.113000
     53 H3           5.3100     2.9690    12.6730 ha         1 DT8       0.113000
     54 H9           3.8720    -0.2080     7.7900 ha         1 DT8       0.135000
     55 H1           5.9610    -0.3270    10.0790 ha         1 DT8       0.114000
     56 H161         0.1580    -0.3060     2.4180 hc         1 DT8       0.044700
     57 H162         1.0520    -1.7870     2.0610 hc         1 DT8       0.044700
     58 H15          1.0690    -1.0980     4.4600 h1         1 DT8       0.055700
     59 HN20         3.8570    -1.1220     3.6020 hn         1 DT8       0.197500
     60 H281         6.9760    -6.5500     5.5530 h1         1 DT8       0.023200
     61 H282         6.4210    -7.2420     4.0210 h1         1 DT8       0.023200
     62 H331        10.0540    -6.9490     3.6960 h1         1 DT8       0.002700
     63 H332         9.3190    -7.0910     5.2980 h1         1 DT8       0.002700
     64 H333         8.7240    -8.0850     3.9610 h1         1 DT8       0.002700
     65 H301         9.6500    -4.6100     3.8350 h1         1 DT8       0.017200
     66 H302         8.6670    -4.6960     5.3650 h1         1 DT8       0.017200
     67 H311         7.9140    -3.5200     2.6920 hc         1 DT8       0.036200
     68 H312         7.9940    -2.7070     4.3220 hc         1 DT8       0.036200
@<TRIPOS>BOND
     1     1     2 2   
     2     2     3 1   
     3     2     6 1   
     4     3     4 1   
     5     3     5 1   
     6     4    38 1   
     7     4    39 1   
     8     4    40 1   
     9     5    41 1   
    10     5    42 1   
    11     5    43 1   
    12     6     7 1   
    13     6    23 1   
    14     6    44 1   
    15     7     8 1   
    16     7    45 1   
    17     7    46 1   
    18     8     9 1   
    19     8    47 1   
    20     8    48 1   
    21     9    10 1   
    22     9    24 1   
    23     9    49 1   
    24    10    11 1   
    25    10    50 1   
    26    11    12 2   
    27    11    13 1   
    28    13    14 1   
    29    13    20 2   
    30    14    15 1   
    31    14    51 1   
    32    15    16 ar  
    33    15    21 ar  
    34    16    17 ar  
    35    16    52 1   
    36    17    18 ar  
    37    17    53 1   
    38    18    19 1   
    39    18    22 ar  
    40    20    21 1   
    41    20    54 1   
    42    21    22 ar  
    43    22    55 1   
    44    23    24 1   
    45    23    56 1   
    46    23    57 1   
    47    24    25 1   
    48    24    58 1   
    49    25    26 1   
    50    25    59 1   
    51    26    27 2   
    52    26    28 1   
    53    28    29 1   
    54    28    37 2   
    55    29    30 1   
    56    30    31 1   
    57    30    36 2   
    58    31    32 1   
    59    31    60 1   
    60    31    61 1   
    61    32    33 1   
    62    32    34 1   
    63    33    62 1   
    64    33    63 1   
    65    33    64 1   
    66    34    35 1   
    67    34    65 1   
    68    34    66 1   
    69    35    36 1   
    70    35    67 1   
    71    35    68 1   
    72    36    37 1   
@<TRIPOS>SUBSTRUCTURE
     1 DT8         1 TEMP              0 ****  ****    0 ROOT
