@<TRIPOS>MOLECULE
molecule
   38    39     1     0     0
SMALL
bcc


@<TRIPOS>ATOM
      1 CAA          0.0000     0.0000     0.0000 c3         1 DT9       0.123700
      2 CAB          5.6040     0.0050     0.3130 c3         1 DT9       0.124700
      3 CAC          4.6660    -1.4180     5.2010 c3         1 DT9      -0.112100
      4 NAD          4.2110     0.3630     8.5200 nz         1 DT9      -0.817500
      5 OAE          2.2430     1.7090     7.8820 o          1 DT9      -0.529300
      6 OAF          4.4660     2.1390     6.8250 o          1 DT9      -0.529300
      7 CAG          1.2960     0.0020     2.3740 ca         1 DT9      -0.189000
      8 CAH          4.0500    -0.0030     2.5280 ca         1 DT9      -0.185000
      9 CAI          1.0330     0.0170     4.8370 c3         1 DT9      -0.036100
     10 CAJ          1.7940    -0.4750     6.0660 c3         1 DT9       0.218800
     11 OAK          1.4290     0.0000     0.0000 os         1 DT9      -0.297900
     12 OAL          4.1850     0.0060     0.1540 os         1 DT9      -0.297900
     13 CAM          1.9170     0.0000     3.6170 ca         1 DT9      -0.071300
     14 CAN          2.0460     0.0010     1.2120 ca         1 DT9       0.148100
     15 CAO          3.4350     0.0020     1.2890 ca         1 DT9       0.138100
     16 CAP          3.2920    -0.0090     3.6910 ca         1 DT9      -0.108300
     17 CAQ          4.0280    -0.0400     5.0080 c3         1 DT9       0.279800
     18 NAR          3.0910     0.2220     6.1050 n3         1 DT9      -0.785500
     19 SAS          3.4750     1.2590     7.3370 s6         1 DT9       1.346800
     20 HAA         -0.3610     0.8850     0.5100 h1         1 DT9       0.048367
     21 HAAA        -0.3610    -0.8840     0.5110 h1         1 DT9       0.048367
     22 HAAB        -0.3610    -0.0010    -1.0210 h1         1 DT9       0.048367
     23 HAB          6.0760     0.0710    -0.6600 h1         1 DT9       0.046367
     24 HABA         5.9120    -0.9100     0.8030 h1         1 DT9       0.046367
     25 HABB         5.9000     0.8550     0.9160 h1         1 DT9       0.046367
     26 HAC          4.1540    -2.1430     4.5790 hc         1 DT9       0.049700
     27 HACA         5.7110    -1.3750     4.9200 hc         1 DT9       0.049700
     28 HACB         4.5830    -1.7120     6.2400 hc         1 DT9       0.049700
     29 HNAD         5.1340     0.1150     8.2250 hn         1 DT9       0.490467
     30 HNAA         4.2630     0.9020     9.3620 hn         1 DT9       0.490467
     31 HAG          0.2140     0.0040     2.3140 ha         1 DT9       0.153000
     32 HAH          5.1320     0.0020     2.5910 ha         1 DT9       0.144000
     33 HAI          0.6900     1.0290     5.0120 hc         1 DT9       0.075700
     34 HAIA         0.1800    -0.6290     4.6660 hc         1 DT9       0.075700
     35 HAJ          1.2300    -0.2230     6.9560 h1         1 DT9       0.069200
     36 HAJA         1.9670    -1.5400     5.9740 h1         1 DT9       0.069200
     37 HAQ          4.7990     0.7210     5.0060 h1         1 DT9       0.089700
     38 HAD3         3.6780    -0.4670     8.6900 hn         1 DT9       0.490467
@<TRIPOS>BOND
     1     1    11 1
     2     2    12 1
     3     3    17 1
     4     4    19 1
     5     5    19 2
     6     6    19 2
     7     7    13 ar
     8     7    14 ar
     9     8    15 ar
    10     8    16 ar
    11     9    10 1
    12     9    13 1
    13    10    18 1
    14    11    14 1
    15    12    15 1
    16    13    16 ar
    17    14    15 ar
    18    16    17 1
    19    17    18 1
    20    18    19 1
    21     1    20 1
    22     1    21 1
    23     1    22 1
    24     2    23 1
    25     2    24 1
    26     2    25 1
    27     3    26 1
    28     3    27 1
    29     3    28 1
    30     4    29 1
    31     4    30 1
    32     7    31 1
    33     8    32 1
    34     9    33 1
    35     9    34 1
    36    10    35 1
    37    10    36 1
    38    17    37 1
    39    38     4 1
@<TRIPOS>SUBSTRUCTURE
     1 DT9         1 TEMP              0 ****  ****    0 ROOT
