@<TRIPOS>MOLECULE
molecule
   62    67     1     0     0
SMALL
bcc


@<TRIPOS>ATOM
      1 N62          0.0000     0.0000     0.0000 nv         1 DTA      -0.986500
      2 C62          1.4060     0.0000     0.0000 ca         1 DTA       0.767700
      3 N12          2.0870     0.0000     1.1710 nb         1 DTA      -0.790500
      4 C22          3.4410     0.0010     1.1060 ca         1 DTA       0.684900
      5 N32          4.2380     0.0010     0.0160 nb         1 DTA      -0.729500
      6 C42          3.4990     0.0000    -1.1050 ca         1 DTA       0.454300
      7 C52          2.1160    -0.0010    -1.1960 ca         1 DTA      -0.211700
      8 N72          1.7170    -0.0010    -2.5100 nc         1 DTA      -0.556100
      9 C82          2.8360    -0.0020    -3.2030 cd         1 DTA       0.410700
     10 N92          3.9440    -0.0000    -2.3960 na         1 DTA      -0.267000
     11 C1'          5.3390     0.0010    -2.8460 c3         1 DTA       0.240300
     12 O4'          5.4490     0.7600    -4.0680 os         1 DTA      -0.383600
     13 C2'          5.8960    -1.3980    -3.1160 c3         1 DTA       0.085600
     14 O2'          7.2290    -1.4770    -2.6130 oh         1 DTA      -0.569800
     15 C3'          5.8770    -1.4800    -4.6310 c3         1 DTA       0.114600
     16 O3'          6.8370    -2.3700    -5.1580 oh         1 DTA      -0.568800
     17 C4'          6.1450    -0.0420    -5.0370 c3         1 DTA       0.146600
     18 C5'          5.6550     0.2960    -6.4330 c3         1 DTA      -0.008300
     19 S5'          6.0270     2.0230    -6.8330 ss         1 DTA      -0.150100
     20 S5R          5.2630     2.1830    -8.7350 ss         1 DTA      -0.150100
     21 C5R          3.5620     2.7050    -8.4060 c3         1 DTA      -0.008300
     22 C4R          2.7990     2.8850    -9.7060 c3         1 DTA       0.146600
     23 O4R          2.7110     1.6290   -10.3980 os         1 DTA      -0.383600
     24 C3R          1.3600     3.3330    -9.5070 c3         1 DTA       0.114600
     25 O3R          1.2620     4.7220    -9.2830 oh         1 DTA      -0.568800
     26 C2R          0.7020     2.8800   -10.7960 c3         1 DTA       0.085600
     27 O2R          0.8840     3.8410   -11.8340 oh         1 DTA      -0.569800
     28 C1R          1.4760     1.6080   -11.1450 c3         1 DTA       0.240300
     29 N91          0.7460     0.3750   -10.8450 na         1 DTA      -0.267000
     30 C81         -0.0430    -0.3300   -11.7160 cc         1 DTA       0.410700
     31 N71         -0.5700    -1.3990   -11.1570 nd         1 DTA      -0.556100
     32 C51         -0.1050    -1.3860    -9.8660 ca         1 DTA      -0.211700
     33 C41          0.7150    -0.2910    -9.6510 ca         1 DTA       0.454300
     34 N31          1.3440     0.0420    -8.5140 nb         1 DTA      -0.729500
     35 C21          1.0750    -0.8600    -7.5450 ca         1 DTA       0.684900
     36 N11          0.2990    -1.9690    -7.6080 nb         1 DTA      -0.790500
     37 C61         -0.3060    -2.2430    -8.7880 ca         1 DTA       0.767700
     38 N61         -1.1240    -3.3790    -8.9170 nv         1 DTA      -0.986500
     39 H621        -0.5010     0.0480    -0.8650 hn         1 DTA       0.451050
     40 H622        -0.5000    -0.0570     0.8650 hn         1 DTA       0.451050
     41 H22          3.9550     0.0010     2.0600 h5         1 DTA       0.044600
     42 H82          2.8760    -0.0020    -4.2850 h5         1 DTA       0.073300
     43 H1'          5.9510     0.4760    -2.0890 h2         1 DTA       0.107700
     44 H2'          5.2610    -2.1580    -2.6790 h1         1 DTA       0.063200
     45 HO2'         7.2900    -2.1890    -1.9970 ho         1 DTA       0.412500
     46 H3'          4.8870    -1.7690    -4.9630 h1         1 DTA       0.054700
     47 HO3'         6.4060    -3.1480    -5.4720 ho         1 DTA       0.409000
     48 H4'          7.2080     0.1560    -4.9660 h1         1 DTA       0.090700
     49 H5'1         4.5840     0.1400    -6.4830 h1         1 DTA       0.078950
     50 H5'2         6.1450    -0.3510    -7.1510 h1         1 DTA       0.078950
     51 H5R1         3.5740     3.6430    -7.8650 h1         1 DTA       0.078950
     52 H5R2         3.0680     1.9520    -7.8030 h1         1 DTA       0.078950
     53 H4R          3.3140     3.6040   -10.3330 h1         1 DTA       0.090700
     54 H3R          0.9280     2.7940    -8.6720 h1         1 DTA       0.054700
     55 HO3R         0.6230     4.8880    -8.6100 ho         1 DTA       0.409000
     56 H2R         -0.3480     2.6620   -10.6380 h1         1 DTA       0.063200
     57 HO2R         0.0450     4.0750   -12.1960 ho         1 DTA       0.412500
     58 H1R          1.7110     1.6270   -12.2030 h2         1 DTA       0.107700
     59 H81         -0.2120    -0.0420   -12.7460 h5         1 DTA       0.073300
     60 H21          1.5440    -0.6710    -6.5870 h5         1 DTA       0.044600
     61 H611        -1.5630    -3.5830    -9.7920 hn         1 DTA       0.451050
     62 H612        -1.2640    -3.9860    -8.1330 hn         1 DTA       0.451050
@<TRIPOS>BOND
     1     1     2 1
     2     1    39 1
     3     1    40 1
     4     2     7 ar
     5     2     3 ar
     6     3     4 ar
     7     4     5 ar
     8     4    41 1
     9     5     6 ar
    10     6     7 ar
    11     6    10 1
    12     7     8 1
    13     8     9 2
    14     9    10 1
    15     9    42 1
    16    10    11 1
    17    11    13 1
    18    11    12 1
    19    11    43 1
    20    12    17 1
    21    13    14 1
    22    13    15 1
    23    13    44 1
    24    14    45 1
    25    15    16 1
    26    15    17 1
    27    15    46 1
    28    16    47 1
    29    17    18 1
    30    17    48 1
    31    18    19 1
    32    18    49 1
    33    18    50 1
    34    19    20 1
    35    20    21 1
    36    21    22 1
    37    21    51 1
    38    21    52 1
    39    22    23 1
    40    22    24 1
    41    22    53 1
    42    23    28 1
    43    24    26 1
    44    24    25 1
    45    24    54 1
    46    25    55 1
    47    26    28 1
    48    26    27 1
    49    26    56 1
    50    27    57 1
    51    28    29 1
    52    28    58 1
    53    29    30 1
    54    29    33 1
    55    30    31 2
    56    30    59 1
    57    31    32 1
    58    32    37 ar
    59    32    33 ar
    60    33    34 ar
    61    34    35 ar
    62    35    36 ar
    63    35    60 1
    64    36    37 ar
    65    37    38 1
    66    38    61 1
    67    38    62 1
@<TRIPOS>SUBSTRUCTURE
     1 DTA         1 TEMP              0 ****  ****    0 ROOT
