@<TRIPOS>MOLECULE
DTB
   32    32     1     0     0
SMALL
bcc


@<TRIPOS>ATOM
      1 CN           0.0000     0.0000     0.0000 c          1 DTB       0.616500
      2 O           -0.6620    -0.0000    -1.0190 o          1 DTB      -0.750500
      3 N2           1.3390     0.0000     0.0000 ns         1 DTB      -0.207900
      4 CR           1.8220     0.0000     1.3890 c3         1 DTB       0.007700
      5 CS           0.5310    -0.0010     2.2290 c3         1 DTB       0.007700
      6 N1          -0.5440     0.0050     1.2240 ns         1 DTB      -0.224900
      7 CT           0.4540    -1.2590     3.0970 c3         1 DTB      -0.023100
      8 CE           2.6460    -1.2580     1.6720 c3         1 DTB      -0.059400
      9 CD           3.9320    -1.2220     0.8430 c3         1 DTB      -0.031400
     10 CG           4.7560    -2.4800     1.1250 c3         1 DTB      -0.035400
     11 CB           6.0420    -2.4440     0.2970 c3         1 DTB      -0.016400
     12 CA           6.8660    -3.7010     0.5780 c3         1 DTB      -0.134400
     13 C            8.1320    -3.6650    -0.2380 c          1 DTB       0.980600
     14 OI1          8.3530    -2.7300    -0.9700 o          1 DTB      -0.905300
     15 OI2          9.0150    -4.6730    -0.1520 o          1 DTB      -0.905300
     16 HN2          1.9190     0.0000    -0.8160 hn         1 DTB       0.219500
     17 HCR          2.4010     0.8940     1.5870 h1         1 DTB       0.033700
     18 HCS          0.4790     0.8920     2.8410 h1         1 DTB       0.024700
     19 HN1         -1.5250     0.0070     1.4220 hn         1 DTB       0.204500
     20 HCT1         0.4640    -2.1370     2.4610 hc         1 DTB       0.016367
     21 HCT2        -0.4620    -1.2430     3.6760 hc         1 DTB       0.016367
     22 HCT3         1.3040    -1.2890     3.7670 hc         1 DTB       0.016367
     23 HCE1         2.0690    -2.1350     1.4050 hc         1 DTB       0.029700
     24 HCE2         2.8960    -1.2970     2.7250 hc         1 DTB       0.029700
     25 HCD1         3.6810    -1.1830    -0.2100 hc         1 DTB       0.014700
     26 HCD2         4.5090    -0.3450     1.1090 hc         1 DTB       0.014700
     27 HCG1         4.1790    -3.3570     0.8580 hc         1 DTB       0.005700
     28 HCG2         5.0060    -2.5190     2.1790 hc         1 DTB       0.005700
     29 HCB1         5.7920    -2.4040    -0.7570 hc         1 DTB       0.021200
     30 HCB2         6.6190    -1.5660     0.5640 hc         1 DTB       0.021200
     31 HCA1         7.1160    -3.7410     1.6320 hc         1 DTB       0.004200
     32 HCA2         6.2890    -4.5780     0.3110 hc         1 DTB       0.004200
@<TRIPOS>BOND
     1     1     2 2   
     2     1     3 1   
     3     1     6 1   
     4     3     4 1   
     5     3    16 1   
     6     4     5 1   
     7     4     8 1   
     8     4    17 1   
     9     5     6 1   
    10     5     7 1   
    11     5    18 1   
    12     6    19 1   
    13     7    20 1   
    14     7    21 1   
    15     7    22 1   
    16     8     9 1   
    17     8    23 1   
    18     8    24 1   
    19     9    10 1   
    20     9    25 1   
    21     9    26 1   
    22    10    11 1   
    23    10    27 1   
    24    10    28 1   
    25    11    12 1   
    26    11    29 1   
    27    11    30 1   
    28    12    13 1   
    29    12    31 1   
    30    12    32 1   
    31    13    14 1   
    32    13    15 1   
@<TRIPOS>SUBSTRUCTURE
     1 DTB         1 TEMP              0 ****  ****    0 ROOT
