@<TRIPOS>MOLECULE
molecule
   37    40     1     0     0
SMALL
bcc


@<TRIPOS>ATOM
      1 O5           0.0000     0.0000     0.0000 os         1 DTC      -0.325200
      2 C10          1.3560     0.0000     0.0000 ca         1 DTC       0.180600
      3 C9           2.0830     0.0000     1.2000 ca         1 DTC      -0.256100
      4 C8           1.3640    -0.0250     2.4880 c          1 DTC       0.586700
      5 O17          1.9320    -0.2690     3.5320 o          1 DTC      -0.493100
      6 C7          -0.1260     0.2710     2.4370 c3         1 DTC      -0.267700
      7 C15         -0.3620     1.7830     2.4400 c3         1 DTC      -0.044400
      8 C6          -0.6330    -0.3330     1.1410 c          1 DTC       0.720600
      9 O16         -1.5740    -1.0900     1.1330 o          1 DTC      -0.496000
     10 C1           3.4790     0.0170     1.1750 ca         1 DTC      -0.034000
     11 C2           4.1400     0.0240    -0.0360 ca         1 DTC      -0.166500
     12 C3           3.4230     0.0140    -1.2200 ca         1 DTC      -0.067000
     13 C4           2.0410     0.0020    -1.2070 ca         1 DTC      -0.155000
     14 C5          -2.0750     5.6620     1.2220 ca         1 DTC      -0.034000
     15 C20         -2.1360     4.2670     1.2670 ca         1 DTC      -0.256100
     16 C19         -2.2300     3.5270     0.0780 ca         1 DTC       0.180600
     17 C18         -2.2770     4.1990    -1.1360 ca         1 DTC      -0.155000
     18 C17         -2.2210     5.5780    -1.1690 ca         1 DTC      -0.067000
     19 C16         -2.1170     6.3090     0.0050 ca         1 DTC      -0.166500
     20 O21         -2.2640     2.1720     0.0940 os         1 DTC      -0.325200
     21 C12         -2.5530     1.5610     1.2590 c          1 DTC       0.720600
     22 O32         -3.3340     0.6410     1.3050 o          1 DTC      -0.496000
     23 C13         -1.8640     2.0650     2.5160 c3         1 DTC      -0.267700
     24 C14         -2.1130     3.5640     2.5630 c          1 DTC       0.586700
     25 O38         -2.2830     4.1500     3.6100 o          1 DTC      -0.493100
     26 HC7         -0.6240    -0.1900     3.2810 hc         1 DTC       0.121200
     27 H151         0.0410     2.2140     1.5310 hc         1 DTC       0.076200
     28 H152         0.1320     2.2240     3.2980 hc         1 DTC       0.076200
     29 HC1          4.0400     0.0250     2.1010 ha         1 DTC       0.157000
     30 HC2          5.2230     0.0330    -0.0600 ha         1 DTC       0.143000
     31 HC3          3.9500     0.0190    -2.1670 ha         1 DTC       0.142000
     32 HC4          1.4920    -0.0050    -2.1410 ha         1 DTC       0.156000
     33 H18         -2.3570     3.6390    -2.0600 ha         1 DTC       0.156000
     34 H17         -2.2530     6.0940    -2.1210 ha         1 DTC       0.142000
     35 H16         -2.0740     7.3910    -0.0340 ha         1 DTC       0.143000
     36 H13         -2.2940     1.5900     3.3890 hc         1 DTC       0.121200
     37 HC5         -1.9940     6.2330     2.1390 ha         1 DTC       0.157000
@<TRIPOS>BOND
     1     1     2 1
     2     1     8 1
     3     2     3 ar
     4     2    13 ar
     5     3     4 1
     6     3    10 ar
     7     4     5 2
     8     4     6 1
     9     6     7 1
    10     6     8 1
    11     6    26 1
    12     7    23 1
    13     7    27 1
    14     7    28 1
    15     8     9 2
    16    10    11 ar
    17    10    29 1
    18    11    12 ar
    19    11    30 1
    20    12    13 ar
    21    12    31 1
    22    13    32 1
    23    14    15 ar
    24    14    19 ar
    25    14    37 1
    26    15    16 ar
    27    15    24 1
    28    16    17 ar
    29    16    20 1
    30    17    18 ar
    31    17    33 1
    32    18    19 ar
    33    18    34 1
    34    19    35 1
    35    20    21 1
    36    21    22 2
    37    21    23 1
    38    23    24 1
    39    23    36 1
    40    24    25 2
@<TRIPOS>SUBSTRUCTURE
     1 DTC         1 TEMP              0 ****  ****    0 ROOT
