@<TRIPOS>MOLECULE
DTC
   37    40     1     0     0
SMALL
bcc


@<TRIPOS>ATOM
      1 O5          1.8710   -0.9900   -0.9530 os        1 DTC     -0.325700
      2 C10         2.6100   -1.0820    0.2110 ca        1 DTC      0.163600
      3 C9          2.4570   -0.1980    1.2890 ca        1 DTC     -0.241100
      4 C8          1.4490    0.8650    1.2500 c         1 DTC      0.598200
      5 O17         1.4020    1.7700    2.0910 o         1 DTC     -0.520100
      6 C7          0.4150    0.7510    0.1540 c3        1 DTC     -0.253700
      7 C15        -0.1220    2.1040   -0.3030 c3        1 DTC     -0.052400
      8 C6          0.8840   -0.0200   -1.0460 c         1 DTC      0.732100
      9 O16         0.4410    0.0440   -2.1890 o         1 DTC     -0.552500
     10 C1          3.2890   -0.3520    2.4090 ca        1 DTC     -0.038500
     11 C2          4.2320   -1.3720    2.4490 ca        1 DTC     -0.167000
     12 C3          4.3650   -2.2510    1.3680 ca        1 DTC     -0.068500
     13 C4          3.5610   -2.1160    0.2420 ca        1 DTC     -0.154500
     14 C5         -2.5860    6.2630    0.8450 ca        1 DTC     -0.038500
     15 C20        -2.4490    4.8660    0.8200 ca        1 DTC     -0.241100
     16 C19        -3.5370    4.0760    1.2150 ca        1 DTC      0.163600
     17 C18        -4.7460    4.6530    1.6380 ca        1 DTC     -0.154500
     18 C17        -4.8520    6.0400    1.6600 ca        1 DTC     -0.068500
     19 C16        -3.7780    6.8430    1.2650 ca        1 DTC     -0.167000
     20 O21        -3.5160    2.6930    1.1910 os        1 DTC     -0.325700
     21 C12        -2.3370    2.0450    0.8640 c         1 DTC      0.732100
     22 O32        -2.5180    0.8300    0.7960 o         1 DTC     -0.552500
     23 C13        -1.0380    2.7760    0.7130 c3        1 DTC     -0.253700
     24 C14        -1.1940    4.2470    0.3840 c         1 DTC      0.598200
     25 O38        -0.2900    4.8790   -0.1710 o         1 DTC     -0.520100
     26 HC7        -0.4450    0.1450    0.5900 hc        1 DTC      0.148700
     27 H151        0.7440    2.7940   -0.5030 hc        1 DTC      0.091200
     28 H152       -0.6810    1.9640   -1.2680 hc        1 DTC      0.091200
     29 HC1         3.1770    0.3500    3.2520 ha        1 DTC      0.160000
     30 HC2         4.8780   -1.4890    3.3320 ha        1 DTC      0.145000
     31 HC3         5.1140   -3.0570    1.4070 ha        1 DTC      0.144000
     32 HC4         3.6560   -2.7920   -0.6200 ha        1 DTC      0.162500
     33 H18        -5.5820    4.0050    1.9390 ha        1 DTC      0.162500
     34 H17        -5.7930    6.5060    1.9910 ha        1 DTC      0.144000
     35 H16        -3.8770    7.9390    1.2840 ha        1 DTC      0.145000
     36 H13        -0.5330    2.7410    1.7330 hc        1 DTC      0.148700
     37 HC5        -1.7340    6.8850    0.5240 ha        1 DTC      0.160000
@<TRIPOS>BOND
     1    1    2 1   
     2    1    8 1   
     3    2    3 ar  
     4    2   13 ar  
     5    3    4 1   
     6    3   10 ar  
     7    4    5 2   
     8    4    6 1   
     9    6    7 1   
    10    6    8 1   
    11    6   26 1   
    12    7   23 1   
    13    7   27 1   
    14    7   28 1   
    15    8    9 2   
    16   10   11 ar  
    17   10   29 1   
    18   11   12 ar  
    19   11   30 1   
    20   12   13 ar  
    21   12   31 1   
    22   13   32 1   
    23   14   15 ar  
    24   14   19 ar  
    25   14   37 1   
    26   15   16 ar  
    27   15   24 1   
    28   16   17 ar  
    29   16   20 1   
    30   17   18 ar  
    31   17   33 1   
    32   18   19 ar  
    33   18   34 1   
    34   19   35 1   
    35   20   21 1   
    36   21   22 2   
    37   21   23 1   
    38   23   24 1   
    39   23   36 1   
    40   24   25 2   
@<TRIPOS>SUBSTRUCTURE
     1 DTC         1 TEMP              0 ****  ****    0 ROOT
