@<TRIPOS>MOLECULE
DTD
   16    16     1     0     0
SMALL
bcc


@<TRIPOS>ATOM
      1 S1         -0.0370   -0.0970   -0.0690 ss        1 DTD     -0.153100
      2 C1          1.7170    0.0300   -0.0750 c3        1 DTD     -0.045800
      3 C2          2.2950    0.0840    1.3320 c3        1 DTD      0.125100
      4 O2          3.6720    0.3900    1.1760 oh        1 DTD     -0.600800
      5 C3          2.1420   -1.2640    2.0760 c3        1 DTD      0.125100
      6 O3          2.9090   -1.1090    3.2640 oh        1 DTD     -0.600800
      7 C4          0.6970   -1.5800    2.4300 c3        1 DTD     -0.045800
      8 S4         -0.2800   -1.9270    1.0080 ss        1 DTD     -0.153100
      9 H11         2.1970   -0.7970   -0.6520 h1        1 DTD      0.095950
     10 H12         1.9480    0.9930   -0.6030 h1        1 DTD      0.095950
     11 H21         1.7970    0.8940    1.9360 h1        1 DTD      0.063700
     12 HO2         4.0680    0.3670    2.0590 ho        1 DTD      0.419500
     13 H31         2.5800   -2.0900    1.4470 h1        1 DTD      0.063700
     14 HO3         2.9550   -1.9750    3.6850 ho        1 DTD      0.419500
     15 H41         0.6510   -2.5110    3.0510 h1        1 DTD      0.095950
     16 H42         0.2660   -0.7450    3.0360 h1        1 DTD      0.095950
@<TRIPOS>BOND
     1    1    2 1   
     2    1    8 1   
     3    2    3 1   
     4    2    9 1   
     5    2   10 1   
     6    3    4 1   
     7    3    5 1   
     8    3   11 1   
     9    4   12 1   
    10    5    6 1   
    11    5    7 1   
    12    5   13 1   
    13    6   14 1   
    14    7    8 1   
    15    7   15 1   
    16    7   16 1   
@<TRIPOS>SUBSTRUCTURE
     1 DTD         1 TEMP              0 ****  ****    0 ROOT
