@<TRIPOS>MOLECULE
molecule
   27    28     1     0     0
SMALL
bcc


@<TRIPOS>ATOM
      1 N            0.0000     0.0000     0.0000 nz         1 DTE      -0.784600
      2 CA           1.4740     0.0000     0.0000 c3         1 DTE      -0.042500
      3 C            2.0200     0.0000     1.4280 c          1 DTE       0.908600
      4 OXT          3.2360     0.0370     1.6370 o          1 DTE      -0.773800
      5 CB           2.0480    -1.1880    -0.7960 c3         1 DTE      -0.001200
      6 CG           1.6660    -2.5770    -0.2590 cc         1 DTE      -0.144400
      7 CD2          2.4870    -3.4610     0.4250 ca         1 DTE      -0.075800
      8 CD1          0.4820    -3.1670    -0.3960 cd         1 DTE      -0.153100
      9 NE1          0.4990    -4.3750     0.1680 na         1 DTE      -0.122400
     10 CE2          1.7070    -4.5830     0.6810 ca         1 DTE      -0.043200
     11 CZ2          2.2410    -5.6670     1.3670 ca         1 DTE      -0.006600
     12 CH2          3.5690    -5.6340     1.8030 ca         1 DTE      -0.081000
     13 CZ3          4.3540    -4.5070     1.5440 ca         1 DTE      -0.153000
     14 CE3          3.8170    -3.4170     0.8510 ca         1 DTE      -0.044000
     15 O            1.2510    -0.0240     2.3790 o          1 DTE      -0.773800
     16 Cl           1.2150    -7.0330     1.6500 cl         1 DTE      -0.126400
     17 HN1         -0.3340     0.8950     0.3000 hn         1 DTE       0.436800
     18 HN2         -0.3340    -0.7070     0.6250 hn         1 DTE       0.436800
     19 HA           1.8050     0.9120    -0.4820 hx         1 DTE       0.087700
     20 HBC1         1.7000    -1.1110    -1.8190 hc         1 DTE       0.065700
     21 HBC2         3.1280    -1.1080    -0.7940 hc         1 DTE       0.065700
     22 HD1         -0.3740    -2.7300    -0.8950 h4         1 DTE       0.134000
     23 HE3          4.4260    -2.5440     0.6510 ha         1 DTE       0.158000
     24 HE1         -0.2680    -5.0170     0.2000 hn         1 DTE       0.308700
     25 HH2          3.9870    -6.4770     2.3390 ha         1 DTE       0.146000
     26 HZ3          5.3840    -4.4780     1.8800 ha         1 DTE       0.143000
     27 HN3         -0.3340    -0.1950    -0.9230 hn         1 DTE       0.436800
@<TRIPOS>BOND
     1     1     2 1
     2     2     3 1
     3     2     5 1
     4     3     4 1
     5     3    15 1
     6     5     6 1
     7     6     7 1
     8     6     8 2
     9     7    10 ar
    10     7    14 ar
    11     8     9 1
    12     9    10 1
    13    10    11 ar
    14    11    12 ar
    15    11    16 1
    16    12    13 ar
    17    13    14 ar
    18     1    17 1
    19     1    18 1
    20     2    19 1
    21     5    20 1
    22     5    21 1
    23     8    22 1
    24    14    23 1
    25     9    24 1
    26    12    25 1
    27    13    26 1
    28    27     1 1
@<TRIPOS>SUBSTRUCTURE
     1 DTE         1 TEMP              0 ****  ****    0 ROOT
