@<TRIPOS>MOLECULE
DTF
   92    95     1     0     0
SMALL
bcc


@<TRIPOS>ATOM
      1 CBR         0.4530   -0.9580   -0.1000 ca        1 DTF     -0.031000
      2 CAU         1.7550   -0.6950   -0.6130 ca        1 DTF     -0.104000
      3 CAL         2.8790   -0.9800    0.1220 ca        1 DTF     -0.151000
      4 CAK         2.7650   -1.5450    1.4150 ca        1 DTF     -0.141000
      5 CAS         1.5250   -1.8100    1.9400 ca        1 DTF     -0.127000
      6 CBQ         0.3450   -1.5240    1.1990 ca        1 DTF     -0.040000
      7 CAT        -0.9390   -1.7940    1.7420 ca        1 DTF     -0.151000
      8 CAM        -2.0690   -1.5120    1.0150 ca        1 DTF     -0.112000
      9 CAP        -1.9680   -0.9510   -0.2780 ca        1 DTF     -0.123000
     10 CBP        -0.7360   -0.6730   -0.8400 ca        1 DTF     -0.046000
     11 CBE        -0.6790   -0.0630   -2.2010 c3        1 DTF     -0.136000
     12 CBT        -0.3820   -1.0850   -3.2920 c3        1 DTF     -0.118000
     13 CAY         0.0900   -0.4010   -4.5690 c3        1 DTF     -0.138000
     14 CAI         1.4280    0.2240   -4.4440 c2        1 DTF     -0.188000
     15 CAJ         1.8890    1.2500   -5.1700 c2        1 DTF     -0.128000
     16 CBB        -1.6090   -1.9810   -3.5610 c3        1 DTF     -0.026000
     17 NBG        -2.6440   -1.4300   -4.3870 n         1 DTF     -0.369000
     18 C          -3.8060   -0.8850   -3.8740 c2        1 DTF      0.294000
     19 O          -4.1150   -1.0590   -2.6750 o         1 DTF     -0.401000
     20 CA         -4.7510   -0.0630   -4.7850 c3        1 DTF      0.018000
     21 CB         -6.0050   -0.8730   -5.1620 c3        1 DTF     -0.178000
     22 CG         -5.9940   -2.3530   -4.8430 c2        1 DTF      0.306000
     23 OD1        -6.8860   -2.8750   -4.1350 o         1 DTF     -0.422000
     24 ND2        -5.0340   -3.1470   -5.4120 n         1 DTF     -0.432000
     25 N          -4.0880    0.6050   -5.8750 n         1 DTF     -0.347000
     26 CBM        -3.6530    0.0220   -7.0300 c2        1 DTF      0.288000
     27 OAE        -3.7300   -1.2160   -7.2360 o         1 DTF     -0.460000
     28 CBV        -2.8730    0.9220   -8.0560 c3        1 DTF      0.083000
     29 CAZ        -2.9730    0.2380   -9.4360 c3        1 DTF     -0.170000
     30 CAW        -4.4080    0.1820   -9.9210 c3        1 DTF     -0.159000
     31 CAV        -5.0350    1.5580   -9.9950 c3        1 DTF     -0.157000
     32 CAX        -4.9250    2.2780   -8.6670 c3        1 DTF     -0.159000
     33 CBA        -3.4910    2.3300   -8.1930 c3        1 DTF     -0.170000
     34 NBI        -1.5200    0.9610   -7.5060 n         1 DTF     -0.355000
     35 CBK        -0.3480    1.1050   -8.2240 c2        1 DTF      0.325000
     36 OAC        -0.2890    1.1670   -9.4730 o         1 DTF     -0.422000
     37 CBC         0.9500    0.9900   -7.4350 c3        1 DTF     -0.177000
     38 CBS         1.2260    1.9830   -6.2960 c3        1 DTF      0.030000
     39 CBO         0.0870    2.8370   -5.8780 ca        1 DTF     -0.353000
     40 CAR        -0.4970    3.7170   -6.8160 ca        1 DTF     -0.065500
     41 CAO        -1.5670    4.5130   -6.4950 ca        1 DTF     -0.275000
     42 CAQ        -0.4010    2.8930   -4.5580 ca        1 DTF     -0.065500
     43 CAN        -1.4620    3.6900   -4.2100 ca        1 DTF     -0.275000
     44 CBN        -2.1420    4.5100   -5.1760 ca        1 DTF      0.116000
     45 CBF        -3.2790    5.2100   -4.8660 c2        1 DTF     -0.599000
     46 PBW        -5.6390    4.4290   -4.9180 p3        1 DTF      2.489000
     47 OAG        -5.3850    2.9660   -5.0010 o         1 DTF     -1.166000
     48 OAH        -5.9780    5.0240   -3.6110 o         1 DTF     -1.166000
     49 OAF        -5.9850    5.1370   -6.1680 o         1 DTF     -1.166000
     50 HAU1        1.8480   -0.2540   -1.6190 ha        1 DTF      0.147000
     51 HAL1        3.8790   -0.7700   -0.2830 ha        1 DTF      0.121000
     52 HAK1        3.6770   -1.7640    1.9860 ha        1 DTF      0.113000
     53 HAS1        1.4200   -2.2460    2.9430 ha        1 DTF      0.116000
     54 HAT1       -1.0060   -2.2290    2.7490 ha        1 DTF      0.115000
     55 HAM1       -3.0690   -1.7160    1.4250 ha        1 DTF      0.130000
     56 HAP1       -2.8960   -0.7420   -0.8450 ha        1 DTF      0.188000
     57 HBE1       -1.6600    0.4400   -2.4300 hc        1 DTF      0.115000
     58 HBE2        0.1070    0.7410   -2.2230 hc        1 DTF      0.115000
     59 HBT1        0.4350   -1.7680   -2.9250 hc        1 DTF      0.077000
     60 HAY1        0.1170   -1.1670   -5.3920 hc        1 DTF      0.105500
     61 HAY2       -0.6520    0.3930   -4.8640 hc        1 DTF      0.105500
     62 HAI1        2.0780   -0.2160   -3.6690 ha        1 DTF      0.093000
     63 HAJ1        2.9000    1.6330   -4.9400 ha        1 DTF      0.094000
     64 HBB1       -2.0550   -2.2680   -2.5640 h1        1 DTF      0.089000
     65 HBB2       -1.2380   -2.9180   -4.0700 h1        1 DTF      0.089000
     66 HAA        -2.3770   -1.2070   -5.3200 hn        1 DTF      0.238000
     67 HA1        -5.1100    0.8010   -4.1180 h1        1 DTF      0.207000
     68 HB1        -6.8720   -0.4270   -4.6030 hc        1 DTF      0.124000
     69 HB2        -6.2160   -0.7630   -6.2600 hc        1 DTF      0.124000
     70 HAE        -4.3230   -2.7550   -5.9830 hn        1 DTF      0.230000
     71 HAD        -4.9770   -4.0980   -5.1570 hn        1 DTF      0.230000
     72 HAB        -4.1740    1.6170   -5.8310 hn        1 DTF      0.323000
     73 HAZ1       -2.3520    0.8140  -10.1710 hc        1 DTF      0.110250
     74 HAZ2       -2.5630   -0.8020   -9.3660 hc        1 DTF      0.110250
     75 HAW1       -4.4280   -0.2980  -10.9340 hc        1 DTF      0.089000
     76 HAW2       -5.0080   -0.4680   -9.2290 hc        1 DTF      0.089000
     77 HAV1       -4.5210    2.1600  -10.7910 hc        1 DTF      0.062500
     78 HAV2       -6.1130    1.4660  -10.2880 hc        1 DTF      0.062500
     79 HAX1       -5.5660    1.7680   -7.9010 hc        1 DTF      0.089000
     80 HAX2       -5.3120    3.3280   -8.7600 hc        1 DTF      0.089000
     81 HBA1       -3.4250    2.9080   -7.2290 hc        1 DTF      0.110250
     82 HBA2       -2.8730    2.8980   -8.9410 hc        1 DTF      0.110250
     83 HAC        -1.4870    1.3630   -6.5820 hn        1 DTF      0.259000
     84 HBC1        1.7800    1.0780   -8.1870 hc        1 DTF      0.087000
     85 HBC2        0.9770   -0.0610   -7.0360 hc        1 DTF      0.087000
     86 HBS1        2.0100    2.6920   -6.7140 hc        1 DTF      0.060000
     87 HAR1       -0.0880    3.7350   -7.8400 ha        1 DTF      0.083500
     88 HAO1       -2.0200    5.1700   -7.2490 ha        1 DTF      0.107500
     89 HAQ1        0.0830    2.2780   -3.7820 ha        1 DTF      0.083500
     90 HAN1       -1.8330    3.7040   -3.1770 ha        1 DTF      0.107500
     91 HBF1       -3.7280    5.8970   -5.5920 ha        1 DTF      0.116500
     92 HBF2       -3.6090    5.3000   -3.8250 ha        1 DTF      0.116500
@<TRIPOS>BOND
     1    1    2 1   
     2    1    6 1   
     3    1   10 1   
     4    2    3 1   
     5    2   50 1   
     6    3    4 1   
     7    3   51 1   
     8    4    5 1   
     9    4   52 1   
    10    5    6 1   
    11    5   53 1   
    12    6    7 1   
    13    7    8 1   
    14    7   54 1   
    15    8    9 1   
    16    8   55 1   
    17    9   10 1   
    18    9   56 1   
    19   10   11 1   
    20   11   12 1   
    21   11   57 1   
    22   11   58 1   
    23   12   13 1   
    24   12   16 1   
    25   12   59 1   
    26   13   14 1   
    27   13   60 1   
    28   13   61 1   
    29   14   15 1   
    30   14   62 1   
    31   15   38 1   
    32   15   63 1   
    33   16   17 1   
    34   16   64 1   
    35   16   65 1   
    36   17   18 1   
    37   17   66 1   
    38   18   19 1   
    39   18   20 1   
    40   20   21 1   
    41   20   25 1   
    42   20   67 1   
    43   21   22 1   
    44   21   68 1   
    45   21   69 1   
    46   22   23 1   
    47   22   24 1   
    48   24   70 1   
    49   24   71 1   
    50   25   26 1   
    51   25   72 1   
    52   26   27 1   
    53   26   28 1   
    54   28   29 1   
    55   28   33 1   
    56   28   34 1   
    57   29   30 1   
    58   29   73 1   
    59   29   74 1   
    60   30   31 1   
    61   30   75 1   
    62   30   76 1   
    63   31   32 1   
    64   31   77 1   
    65   31   78 1   
    66   32   33 1   
    67   32   79 1   
    68   32   80 1   
    69   33   81 1   
    70   33   82 1   
    71   34   35 1   
    72   34   83 1   
    73   35   36 1   
    74   35   37 1   
    75   37   38 1   
    76   37   84 1   
    77   37   85 1   
    78   38   39 1   
    79   38   86 1   
    80   39   40 1   
    81   39   42 1   
    82   40   41 1   
    83   40   87 1   
    84   41   44 1   
    85   41   88 1   
    86   42   43 1   
    87   42   89 1   
    88   43   44 1   
    89   43   90 1   
    90   44   45 1   
    91   45   91 1   
    92   45   92 1   
    93   46   47 1   
    94   46   48 1   
    95   46   49 1   
@<TRIPOS>SUBSTRUCTURE
     1 DTF         1 TEMP              0 ****  ****    0 ROOT
