@<TRIPOS>MOLECULE
molecule
   93    97     1     0     0
SMALL
bcc


@<TRIPOS>ATOM
      1 CBR          0.0000     0.0000     0.0000 ca         1 DTF      -0.030000
      2 CAU          1.4050     0.0000     0.0000 ca         1 DTF      -0.114000
      3 CAL          2.0780     0.0000     1.1820 ca         1 DTF      -0.136000
      4 CAK          1.3960     0.0050     2.3970 ca         1 DTF      -0.134000
      5 CAS          0.0350     0.0100     2.4360 ca         1 DTF      -0.116000
      6 CBQ         -0.6950     0.0100     1.2360 ca         1 DTF      -0.033000
      7 CAT         -2.1000     0.0150     1.2360 ca         1 DTF      -0.127000
      8 CAM         -2.7740     0.0160     0.0530 ca         1 DTF      -0.113000
      9 CAP         -2.0910     0.0110    -1.1610 ca         1 DTF      -0.107000
     10 CBP         -0.7300     0.0060    -1.2000 ca         1 DTF      -0.068300
     11 CBE         -0.0100     0.0010    -2.5250 c3         1 DTF      -0.038100
     12 CBT          0.3380    -1.4380    -2.9090 c3         1 DTF      -0.083700
     13 CAY          1.1760    -1.4350    -4.1890 c3         1 DTF      -0.055200
     14 CAI          0.9670    -0.1360    -4.9240 c2         1 DTF      -0.206200
     15 CAJ          1.1590    -0.0790    -6.2180 c2         1 DTF      -0.178200
     16 CBB         -0.9500    -2.2300    -3.1460 c3         1 DTF       0.105000
     17 NBG         -1.8870    -1.3920    -3.9250 ns         1 DTF      -0.566900
     18 C           -3.1560    -1.8780    -4.0510 c          1 DTF       0.646100
     19 O           -3.4620    -2.9380    -3.5480 o          1 DTF      -0.632100
     20 CA          -4.1700    -1.0780    -4.8270 c3         1 DTF       0.053700
     21 CB          -5.1940    -2.0240    -5.4580 c3         1 DTF      -0.154400
     22 CG          -4.5220    -2.8540    -6.5200 c          1 DTF       0.396100
     23 OD1         -3.3220    -2.7870    -6.6750 o          1 DTF      -0.513100
     24 ND2         -5.2560    -3.6740    -7.2990 nz         1 DTF      -0.644400
     25 N           -3.4730    -0.3210    -5.8900 ns         1 DTF      -0.541900
     26 CBM         -4.1800    -0.1210    -7.0380 c          1 DTF       0.707100
     27 OAE         -5.3010    -0.5700    -7.1530 o          1 DTF      -0.697100
     28 CBV         -3.5590     0.6610    -8.1620 c3         1 DTF       0.031400
     29 CAZ         -4.3030     0.3810    -9.4670 c3         1 DTF      -0.058900
     30 CAW         -5.7590     0.8300    -9.3310 c3         1 DTF      -0.092400
     31 CAV         -5.8040     2.3290    -9.0240 c3         1 DTF      -0.087400
     32 CAX         -5.0640     2.6030    -7.7130 c3         1 DTF      -0.092400
     33 CBA         -3.6070     2.1560    -7.8470 c3         1 DTF      -0.058900
     34 NBI         -2.1430     0.2480    -8.3180 ns         1 DTF      -0.602900
     35 CBK         -1.2380     1.2590    -8.1230 c          1 DTF       0.620100
     36 OAC         -1.6080     2.3780    -7.8340 o          1 DTF      -0.487100
     37 CBC          0.2280     0.9480    -8.2740 c3         1 DTF      -0.150400
     38 CBS          0.9490     1.2210    -6.9530 c3         1 DTF       0.032800
     39 CBO          0.1130     2.1470    -6.1070 ca         1 DTF      -0.140300
     40 CAR          0.4180     3.4940    -6.0500 ca         1 DTF      -0.135000
     41 CAO         -0.3490     4.3440    -5.2740 ca         1 DTF      -0.115000
     42 CAQ         -0.9610     1.6510    -5.3930 ca         1 DTF      -0.135000
     43 CAN         -1.7250     2.4990    -4.6140 ca         1 DTF      -0.115000
     44 CBN         -1.4210     3.8460    -4.5560 ca         1 DTF       0.036700
     45 CBF         -2.2560     4.7720    -3.7100 c3         1 DTF      -0.210300
     46 PBW         -3.6270     5.4370    -4.7100 p5         1 DTF       1.040700
     47 OAG         -4.3970     4.3190    -5.2970 o          1 DTF      -0.819167
     48 OAH         -4.5940     6.3220    -3.7740 o          1 DTF      -0.819167
     49 OAF         -3.0330     6.3580    -5.8910 o          1 DTF      -0.819167
     50 HAU1         1.9500    -0.0040    -0.9370 ha         1 DTF       0.134000
     51 HAL1         3.1620    -0.0040     1.1780 ha         1 DTF       0.120000
     52 HAK1         1.9570     0.0050     3.3240 ha         1 DTF       0.119000
     53 HAS1        -0.4820     0.0140     3.3880 ha         1 DTF       0.126000
     54 HAT1        -2.6450     0.0190     2.1720 ha         1 DTF       0.127000
     55 HAM1        -3.8570     0.0190     0.0560 ha         1 DTF       0.131000
     56 HAP1        -2.6510     0.0110    -2.0880 ha         1 DTF       0.142000
     57 HBE1         0.8990     0.5830    -2.4440 hc         1 DTF       0.073700
     58 HBE2        -0.6500     0.4330    -3.2850 hc         1 DTF       0.073700
     59 HBT1         0.9040    -1.8990    -2.1090 hc         1 DTF       0.060700
     60 HAY1         2.2240    -1.5410    -3.9350 hc         1 DTF       0.043700
     61 HAY2         0.8730    -2.2610    -4.8210 hc         1 DTF       0.043700
     62 HAI1         0.6580     0.7500    -4.3820 ha         1 DTF       0.180000
     63 HAJ1         1.4680    -0.9640    -6.7600 ha         1 DTF       0.105000
     64 HBB1        -0.7250    -3.1340    -3.6980 h1         1 DTF       0.052200
     65 HBB2        -1.3980    -2.4870    -2.1940 h1         1 DTF       0.052200
     66 HAA         -1.5340    -0.7360    -4.5930 hn         1 DTF       0.341500
     67 HA1         -4.6740    -0.3880    -4.1610 h1         1 DTF       0.122700
     68 HB1         -5.6020    -2.6750    -4.6950 hc         1 DTF       0.112200
     69 HB2         -5.9940    -1.4450    -5.9040 hc         1 DTF       0.112200
     70 HAE         -4.8610    -3.7040    -8.2180 hn         1 DTF       0.443467
     71 HAD         -6.1960    -3.3330    -7.3510 hn         1 DTF       0.443467
     72 HAB         -2.4730    -0.2850    -5.9060 hn         1 DTF       0.351500
     73 HAZ1        -4.2720    -0.6810    -9.6780 hc         1 DTF       0.064450
     74 HAZ2        -3.8310     0.9290   -10.2740 hc         1 DTF       0.064450
     75 HAW1        -6.2830     0.6380   -10.2590 hc         1 DTF       0.066950
     76 HAW2        -6.2300     0.2830    -8.5240 hc         1 DTF       0.066950
     77 HAV1        -6.8350     2.6460    -8.9270 hc         1 DTF       0.034700
     78 HAV2        -5.3260     2.8760    -9.8280 hc         1 DTF       0.034700
     79 HAX1        -5.5370     2.0510    -6.9100 hc         1 DTF       0.066950
     80 HAX2        -5.0960     3.6640    -7.4970 hc         1 DTF       0.066950
     81 HBA1        -3.1330     2.7080    -8.6500 hc         1 DTF       0.064450
     82 HBA2        -3.0860     2.3440    -6.9160 hc         1 DTF       0.064450
     83 HAC         -1.9100    -0.5260    -8.9080 hn         1 DTF       0.295500
     84 HBC1         0.6510     1.5730    -9.0520 hc         1 DTF       0.047200
     85 HBC2         0.3500    -0.0950    -8.5430 hc         1 DTF       0.047200
     86 HBS1         1.9090     1.6820    -7.1530 hc         1 DTF       0.061700
     87 HAR1         1.2780     3.8780    -6.5840 ha         1 DTF       0.089000
     88 HAO1        -0.0790     5.3900    -5.1880 ha         1 DTF       0.139000
     89 HAQ1        -1.1970     0.5940    -5.4340 ha         1 DTF       0.089000
     90 HAN1        -2.5370     2.1010    -4.0180 ha         1 DTF       0.139000
     91 HBF1        -1.6400     5.5890    -3.3530 hc         1 DTF       0.049200
     92 HBF2        -2.6570     4.2260    -2.8650 hc         1 DTF       0.049200
     93 HD23        -5.2340    -4.6010    -6.9220 hn         1 DTF       0.443467
@<TRIPOS>BOND
     1     1     2 ar
     2     1     6 ar
     3     1    10 ar
     4     2     3 ar
     5     2    50 1
     6     3     4 ar
     7     3    51 1
     8     4     5 ar
     9     4    52 1
    10     5     6 ar
    11     5    53 1
    12     6     7 ar
    13     7     8 ar
    14     7    54 1
    15     8     9 ar
    16     8    55 1
    17     9    10 ar
    18     9    56 1
    19    10    11 1
    20    11    12 1
    21    11    57 1
    22    11    58 1
    23    12    13 1
    24    12    16 1
    25    12    59 1
    26    13    14 1
    27    13    60 1
    28    13    61 1
    29    14    15 2
    30    14    62 1
    31    15    38 1
    32    15    63 1
    33    16    17 1
    34    16    64 1
    35    16    65 1
    36    17    18 1
    37    17    66 1
    38    18    19 2
    39    18    20 1
    40    20    21 1
    41    20    25 1
    42    20    67 1
    43    21    22 1
    44    21    68 1
    45    21    69 1
    46    22    23 2
    47    22    24 1
    48    24    70 1
    49    24    71 1
    50    25    26 1
    51    25    72 1
    52    26    27 2
    53    26    28 1
    54    28    29 1
    55    28    33 1
    56    28    34 1
    57    29    30 1
    58    29    73 1
    59    29    74 1
    60    30    31 1
    61    30    75 1
    62    30    76 1
    63    31    32 1
    64    31    77 1
    65    31    78 1
    66    32    33 1
    67    32    79 1
    68    32    80 1
    69    33    81 1
    70    33    82 1
    71    34    35 1
    72    34    83 1
    73    35    36 2
    74    35    37 1
    75    37    38 1
    76    37    84 1
    77    37    85 1
    78    38    39 1
    79    38    86 1
    80    39    40 ar
    81    39    42 ar
    82    40    41 ar
    83    40    87 1
    84    41    44 ar
    85    41    88 1
    86    42    43 ar
    87    42    89 1
    88    43    44 ar
    89    43    90 1
    90    44    45 1
    91    45    46 1
    92    45    91 1
    93    45    92 1
    94    46    47 1
    95    46    48 1
    96    46    49 1
    97    93    24 1
@<TRIPOS>SUBSTRUCTURE
     1 DTF         1 TEMP              0 ****  ****    0 ROOT
