@<TRIPOS>MOLECULE
molecule
   19    18     1     0     0
SMALL
bcc


@<TRIPOS>ATOM
      1 CA           0.0000     0.0000     0.0000 c3         1 DTG      -0.163400
      2 CB           1.5440     0.0000     0.0000 c3         1 DTG      -0.049000
      3 CG1          2.1020     0.0000     1.4330 c3         1 DTG      -0.076433
      4 CG2          2.0240     1.2800    -0.7110 c3         1 DTG      -0.076433
      5 CG3          2.0990    -1.2160    -0.7610 c3         1 DTG      -0.076433
      6 C           -0.6310    -0.0120    -1.3740 c          1 DTG       0.892600
      7 O           -0.8770    -1.0320    -2.0050 o          1 DTG      -0.858300
      8 OXT         -0.9090     1.2320    -1.8380 o          1 DTG      -0.858300
      9 HA1         -0.3420     0.8830     0.5260 hc         1 DTG       0.022200
     10 HA2         -0.3420    -0.8740     0.5400 hc         1 DTG       0.022200
     11 H11          1.7310     0.8680     1.9640 hc         1 DTG       0.024256
     12 H12          1.7830    -0.9000     1.9440 hc         1 DTG       0.024256
     13 H13          3.1840     0.0320     1.3990 hc         1 DTG       0.024256
     14 H21          3.0980     1.3730    -0.6010 hc         1 DTG       0.024256
     15 H22          1.5390     2.1420    -0.2690 hc         1 DTG       0.024256
     16 H23          1.7720     1.2240    -1.7630 hc         1 DTG       0.024256
     17 H31          3.1730    -1.2630    -0.6330 hc         1 DTG       0.024256
     18 H32          1.6490    -2.1220    -0.3710 hc         1 DTG       0.024256
     19 H33          1.8640    -1.1210    -1.8140 hc         1 DTG       0.024256
@<TRIPOS>BOND
     1     1     2 1
     2     1     6 1
     3     1     9 1
     4     1    10 1
     5     2     3 1
     6     2     4 1
     7     2     5 1
     8     3    11 1
     9     3    12 1
    10     3    13 1
    11     4    14 1
    12     4    15 1
    13     4    16 1
    14     5    17 1
    15     5    18 1
    16     5    19 1
    17     6     7 1
    18     6     8 1
@<TRIPOS>SUBSTRUCTURE
     1 DTG         1 TEMP              0 ****  ****    0 ROOT
