@<TRIPOS>MOLECULE
DTI
   15    15     1     0     0
SMALL
bcc


@<TRIPOS>ATOM
      1 N10        -0.0430    0.0020   -0.0610 na        1 DTI      0.023900
      2 C9          1.3600    0.0000   -0.0390 cc        1 DTI     -0.003600
      3 S13         0.6060   -0.0020    2.3820 ss        1 DTI      0.404200
      4 C11        -0.5500    0.0010    1.2070 cc        1 DTI     -0.151400
      5 C14         1.8330   -0.0020    1.2730 cd        1 DTI     -0.243100
      6 C1          2.1800    0.0010   -1.2680 c3        1 DTI     -0.064800
      7 C5         -0.8280    0.0040   -1.2700 c3        1 DTI     -0.015400
      8 H11        -1.6400    0.0020    1.3730 h5        1 DTI      0.240000
      9 H14         2.9010   -0.0040    1.5230 h4        1 DTI      0.236000
     10 H13         1.9670    0.9110   -1.8860 hc        1 DTI      0.092033
     11 H12         1.9650   -0.9090   -1.8880 hc        1 DTI      0.092033
     12 H11A        3.2660   -0.0010   -0.9950 hc        1 DTI      0.092033
     13 H53        -0.5770    0.9210   -1.8710 h1        1 DTI      0.099033
     14 H52        -0.5810   -0.9140   -1.8720 h1        1 DTI      0.099033
     15 H51        -1.9220    0.0060   -1.0170 h1        1 DTI      0.099033
@<TRIPOS>BOND
     1    1    2 1   
     2    1    4 2   
     3    1    7 1   
     4    2    5 2   
     5    2    6 1   
     6    3    4 1   
     7    3    5 1   
     8    4    8 1   
     9    5    9 1   
    10    6   10 1   
    11    6   11 1   
    12    6   12 1   
    13    7   13 1   
    14    7   14 1   
    15    7   15 1   
@<TRIPOS>SUBSTRUCTURE
     1 DTI         1 TEMP              0 ****  ****    0 ROOT
