@<TRIPOS>MOLECULE
molecule
   15    15     1     0     0
SMALL
bcc


@<TRIPOS>ATOM
      1 N10          0.0000     0.0000     0.0000 na         1 DTI       0.071900
      2 C9           1.3170     0.0000     0.0000 cc         1 DTI      -0.075600
      3 S13          0.5710     0.0010     2.4050 ss         1 DTI       0.192200
      4 C11         -0.5890     0.0010     1.1490 cc         1 DTI      -0.059400
      5 C14          1.8720     0.0000     1.2160 cd         1 DTI      -0.096100
      6 C1           2.1330    -0.0020    -1.2680 c3         1 DTI      -0.037800
      7 C5          -0.7640     0.0050    -1.2500 c3         1 DTI      -0.013400
      8 H11         -1.6620     0.0010     1.2960 h5         1 DTI       0.244000
      9 H14          2.9330    -0.0000     1.4330 h4         1 DTI       0.235000
     10 H13          3.1870    -0.0050    -1.0190 hc         1 DTI       0.083033
     11 H12          1.9010     0.8830    -1.8480 hc         1 DTI       0.083033
     12 H11A         1.8970    -0.8860    -1.8480 hc         1 DTI       0.083033
     13 H53         -0.5140     0.8910    -1.8220 h1         1 DTI       0.097033
     14 H52         -0.5190    -0.8780    -1.8270 h1         1 DTI       0.097033
     15 H51         -1.8240     0.0070    -1.0260 h1         1 DTI       0.097033
@<TRIPOS>BOND
     1     6     2 1
     2     2     5 2
     3     2     1 1
     4     7     1 1
     5     5     3 1
     6     1     4 2
     7     4     3 1
     8     4     8 1
     9     5     9 1
    10     6    10 1
    11     6    11 1
    12     6    12 1
    13     7    13 1
    14     7    14 1
    15     7    15 1
@<TRIPOS>SUBSTRUCTURE
     1 DTI         1 TEMP              0 ****  ****    0 ROOT
