@<TRIPOS>MOLECULE
DTJ
   80    84     1     0     0
SMALL
bcc


@<TRIPOS>ATOM
      1 C4           0.0000     0.0000     0.0000 c3         1 DTJ       0.005567
      2 C14          5.2410    -0.1040     6.9850 ca         1 DTJ      -0.062400
      3 C5           2.0320     0.0000     1.4200 ca         1 DTJ      -0.045300
      4 C6           3.3940     0.0000     1.6690 ca         1 DTJ      -0.117500
      5 C7           3.8600     0.0000     2.9670 ca         1 DTJ      -0.053000
      6 C8           2.9560     0.0010     4.0310 ca         1 DTJ      -0.174600
      7 C9           1.5850     0.0010     3.7720 ca         1 DTJ      -0.053000
      8 C10          1.1310     0.0060     2.4700 ca         1 DTJ      -0.117500
      9 C2           1.5300     0.0000     0.0000 c3         1 DTJ      -0.020700
     10 O12          2.6590    -0.0010     6.3490 o          1 DTJ      -0.635100
     11 N13          4.7740    -0.0010     5.6710 ns         1 DTJ      -0.035100
     12 C15          4.4450    -0.6890     7.9620 ca         1 DTJ      -0.116000
     13 C16          4.9030    -0.7930     9.2610 ca         1 DTJ      -0.072000
     14 C17          6.1550    -0.3170     9.5970 ca         1 DTJ      -0.094000
     15 C18          6.9600     0.2720     8.6230 ca         1 DTJ      -0.085900
     16 C19          6.5020     0.3720     7.3130 ca         1 DTJ      -0.129300
     17 C20          7.3680     1.0070     6.2550 c3         1 DTJ       0.274700
     18 O21          8.2430     0.0220     5.7020 oh         1 DTJ      -0.594800
     19 C22          8.3060     0.7850     8.9820 cc         1 DTJ       0.448200
     20 C23          9.4540     0.1820     8.4300 cc         1 DTJ      -0.187600
     21 C24         10.6910     0.6570     8.7610 cd         1 DTJ      -0.098200
     22 C25         10.7950     1.7510     9.6570 c          1 DTJ       0.567700
     23 O26         11.8910     2.1900     9.9670 o          1 DTJ      -0.684500
     24 N27          9.6740     2.3010    10.1650 n          1 DTJ       0.168200
     25 N28          8.4170     1.8020     9.8080 nd         1 DTJ      -0.517300
     26 C29          9.7730     3.4320    11.0930 c3         1 DTJ       0.092300
     27 N30         11.8390     0.0720     8.2250 nu         1 DTJ      -0.285700
     28 C31         12.7240     0.8370     7.4820 ca         1 DTJ       0.526200
     29 C32         12.4430     2.1830     7.2530 ca         1 DTJ      -0.280300
     30 C33         13.3200     2.9360     6.5200 ca         1 DTJ      -0.021000
     31 C34         14.4780     2.3200     6.0210 ca         1 DTJ      -0.340900
     32 C35         14.6940     0.9660     6.2890 ca         1 DTJ       0.511200
     33 N36         13.8280     0.2800     7.0040 nb         1 DTJ      -0.653000
     34 C37         15.4500     3.0880     5.2200 c          1 DTJ       0.631700
     35 O38         16.0200     2.5600     4.2850 o          1 DTJ      -0.652100
     36 N39         15.7040     4.3760     5.5250 n          1 DTJ      -0.151800
     37 C40         16.5650     5.2020     4.6630 c3         1 DTJ      -0.005000
     38 C41         17.6230     5.8800     5.5420 c3         1 DTJ       0.199400
     39 O42         16.9740     6.5530     6.6240 os         1 DTJ      -0.407600
     40 C43         16.2540     5.6870     7.5050 c3         1 DTJ       0.199400
     41 C44         15.1260     4.9990     6.7260 c3         1 DTJ      -0.005000
     42 H1          -0.3610    -0.0000    -1.0210 hc         1 DTJ       0.008589
     43 H2          -0.3610     0.8850     0.5110 hc         1 DTJ       0.008589
     44 H3          -0.3610    -0.8840     0.5110 hc         1 DTJ       0.008589
     45 H4           4.0940    -0.0020     0.8430 ha         1 DTJ       0.120000
     46 H5           4.9260     0.0000     3.1610 ha         1 DTJ       0.112000
     47 H6           0.8780     0.0050     4.5930 ha         1 DTJ       0.112000
     48 H7           0.0660     0.0060     2.2690 ha         1 DTJ       0.120000
     49 H8           1.5330    -1.3480    -1.6730 hc         1 DTJ       0.008589
     50 H9           1.8420    -2.1230    -0.1130 hc         1 DTJ       0.008589
     51 H10          3.1070    -1.1600    -0.8870 hc         1 DTJ       0.008589
     52 H11          1.8380     2.1250    -0.1160 hc         1 DTJ       0.008589
     53 H12          1.5360     1.3470    -1.6760 hc         1 DTJ       0.008589
     54 H13          3.1080     1.1620    -0.8850 hc         1 DTJ       0.008589
     55 H14          5.4240     0.0330     4.9110 hn         1 DTJ       0.180500
     56 H15          3.4620    -1.0640     7.7040 ha         1 DTJ       0.161000
     57 H16          4.2780    -1.2500    10.0190 ha         1 DTJ       0.107000
     58 H17          6.5100    -0.3980    10.6170 ha         1 DTJ       0.111000
     59 H18          7.9550     1.8020     6.6980 h1         1 DTJ      -0.004800
     60 H19          6.7410     1.4140     5.4710 h1         1 DTJ      -0.004800
     61 H20          8.4930     0.2770     4.8290 ho         1 DTJ       0.393000
     62 H21          9.3560    -0.6530     7.7460 ha         1 DTJ       0.148000
     63 H22         10.4650     3.1860    11.8890 h1         1 DTJ       0.024700
     64 H23          8.7970     3.6400    11.5140 h1         1 DTJ       0.024700
     65 H24         10.1300     4.3050    10.5610 h1         1 DTJ       0.024700
     66 H25         12.0350    -0.8940     8.3950 hn         1 DTJ       0.295800
     67 H26         11.5400     2.6290     7.6520 ha         1 DTJ       0.126000
     68 H27         13.1240     3.9840     6.3290 ha         1 DTJ       0.117000
     69 H28         15.5860     0.4800     5.9110 h4         1 DTJ      -0.005900
     70 H29         17.0520     4.5740     3.9270 h1         1 DTJ       0.042450
     71 H30         15.9660     5.9570     4.1670 h1         1 DTJ       0.042450
     72 H31         18.1770     6.5990     4.9510 h1         1 DTJ       0.015700
     73 H32         18.2980     5.1300     5.9370 h1         1 DTJ       0.015700
     74 H33         16.9260     4.9370     7.9030 h1         1 DTJ       0.015700
     75 H34         15.8300     6.2680     8.3150 h1         1 DTJ       0.015700
     76 H35         14.3850     5.7340     6.4330 h1         1 DTJ       0.042450
     77 H36         14.6680     4.2380     7.3450 h1         1 DTJ       0.042450
     78 C11          3.4490    -0.0000     5.4250 c          1 DTJ       0.590700
     79 C3           2.0400    -1.2490    -0.7210 c3         1 DTJ       0.005567
     80 C1           2.0400     1.2500    -0.7220 c3         1 DTJ       0.005567
@<TRIPOS>BOND
     1     1     9 1   
     2     1    42 1   
     3     1    43 1   
     4     1    44 1   
     5     2    11 1   
     6     2    12 ar  
     7     2    16 ar  
     8     3     4 ar  
     9     3     8 ar  
    10     3     9 1   
    11     4     5 ar  
    12     4    45 1   
    13     5     6 ar  
    14     5    46 1   
    15     6     7 ar  
    16     6    78 1   
    17     7     8 ar  
    18     7    47 1   
    19     8    48 1   
    20     9    79 1   
    21     9    80 1   
    22    10    78 2   
    23    11    55 1   
    24    11    78 1   
    25    12    13 ar  
    26    12    56 1   
    27    13    14 ar  
    28    13    57 1   
    29    14    15 ar  
    30    14    58 1   
    31    15    16 ar  
    32    15    19 1   
    33    16    17 1   
    34    17    18 1   
    35    17    59 1   
    36    17    60 1   
    37    18    61 1   
    38    19    20 1   
    39    19    25 2   
    40    20    21 2   
    41    20    62 1   
    42    21    22 1   
    43    21    27 1   
    44    22    23 2   
    45    22    24 1   
    46    24    25 1   
    47    24    26 1   
    48    26    63 1   
    49    26    64 1   
    50    26    65 1   
    51    27    28 1   
    52    27    66 1   
    53    28    29 ar  
    54    28    33 ar  
    55    29    30 ar  
    56    29    67 1   
    57    30    31 ar  
    58    30    68 1   
    59    31    32 ar  
    60    31    34 1   
    61    32    33 ar  
    62    32    69 1   
    63    34    35 2   
    64    34    36 1   
    65    36    37 1   
    66    36    41 1   
    67    37    38 1   
    68    37    70 1   
    69    37    71 1   
    70    38    39 1   
    71    38    72 1   
    72    38    73 1   
    73    39    40 1   
    74    40    41 1   
    75    40    74 1   
    76    40    75 1   
    77    41    76 1   
    78    41    77 1   
    79    49    79 1   
    80    50    79 1   
    81    51    79 1   
    82    52    80 1   
    83    53    80 1   
    84    54    80 1   
@<TRIPOS>SUBSTRUCTURE
     1 DTJ         1 TEMP              0 ****  ****    0 ROOT
