@<TRIPOS>MOLECULE
molecule
   48    49     1     0     0
SMALL
bcc


@<TRIPOS>ATOM
      1 O11          0.0000     0.0000     0.0000 oh         1 DTK      -0.594800
      2 C11          1.4300     0.0000     0.0000 c3         1 DTK       0.121100
      3 C12          1.9410     0.0000     1.4430 c3         1 DTK       0.134100
      4 C13          1.4840    -1.2800     2.1460 c3         1 DTK       0.147400
      5 O13          1.8610    -1.2280     3.5240 oh         1 DTK      -0.599800
      6 O12          3.3680     0.0590     1.4410 os         1 DTK      -0.431600
      7 C10          1.9410     1.2550    -0.7140 c3         1 DTK      -0.070700
      8 C9           3.4710     1.2840    -0.6400 c3         1 DTK      -0.100400
      9 C8           3.9030     1.2350     0.8280 c3         1 DTK       0.334900
     10 O8           3.4140     2.3910     1.5090 os         1 DTK      -0.442600
     11 CM           3.9450     2.5600     2.8240 c3         1 DTK       0.129700
     12 C7           1.4990     1.2260    -2.1780 c3         1 DTK      -0.068400
     13 C1           1.9020     2.5360    -2.8590 c3         1 DTK       0.150100
     14 C2           1.5720     2.4580    -4.3520 c3         1 DTK       0.101100
     15 O2           0.1780     2.1940    -4.5190 oh         1 DTK      -0.586800
     16 C3           1.9230     3.7940    -5.0150 c3         1 DTK       0.111100
     17 O3           3.3290     4.0280    -4.9040 oh         1 DTK      -0.589800
     18 C4           1.1590     4.9190    -4.3080 c3         1 DTK       0.113100
     19 O4           1.5340     6.1770    -4.8700 oh         1 DTK      -0.597800
     20 C5           1.5050     4.9010    -2.8160 c3         1 DTK       0.143100
     21 O5           1.1820     3.6210    -2.2690 os         1 DTK      -0.397600
     22 C6           3.0000     5.1700    -2.6360 c3         1 DTK      -0.121100
     23 H1          -0.3140    -0.8520    -0.2550 ho         1 DTK       0.398000
     24 H2           1.7970    -0.8810    -0.5130 h1         1 DTK       0.033700
     25 H3           1.5470     0.8640     1.9640 h1         1 DTK       0.080700
     26 H4           1.9520    -2.1370     1.6760 h1         1 DTK       0.028200
     27 H5           0.4070    -1.3690     2.0690 h1         1 DTK       0.028200
     28 H6           1.5360    -1.9940     3.9680 ho         1 DTK       0.399000
     29 H7           1.5400     2.1360    -0.2270 hc         1 DTK       0.103700
     30 H8           3.8730     0.4250    -1.1630 hc         1 DTK       0.060200
     31 H9           3.8370     2.1960    -1.0940 hc         1 DTK       0.060200
     32 H10          4.9850     1.2080     0.8830 h2         1 DTK       0.070700
     33 H11          4.3740     3.5500     2.9160 h1         1 DTK       0.034700
     34 H12          3.1510     2.4420     3.5520 h1         1 DTK       0.034700
     35 H13          4.7120     1.8160     3.0030 h1         1 DTK       0.034700
     36 H14          0.4230     1.1090    -2.2290 hc         1 DTK       0.058700
     37 H15          1.9760     0.3950    -2.6830 hc         1 DTK       0.058700
     38 H16          2.9650     2.7000    -2.7340 h1         1 DTK       0.062700
     39 H17          2.1530     1.6660    -4.8080 h1         1 DTK       0.038700
     40 H18          0.0460     1.6930    -5.3070 ho         1 DTK       0.396000
     41 H19          1.6370     3.7650    -6.0590 h1         1 DTK       0.034700
     42 H20          3.7150     4.0360    -5.7640 ho         1 DTK       0.399000
     43 H21          0.0940     4.7640    -4.4330 h1         1 DTK       0.060700
     44 H22          0.7790     6.5840    -5.2610 ho         1 DTK       0.399000
     45 H23          0.9310     5.6650    -2.3050 h1         1 DTK       0.081700
     46 H24          3.2810     6.0450    -3.2100 hc         1 DTK       0.052033
     47 H25          3.2130     5.3420    -1.5880 hc         1 DTK       0.052033
     48 H26          3.5660     4.3140    -2.9840 hc         1 DTK       0.052033
@<TRIPOS>BOND
     1    22    20 1
     2    20    18 1
     3    20    21 1
     4    18    19 1
     5    18    16 1
     6    21    13 1
     7    12    13 1
     8    12     7 1
     9     8     7 1
    10     8     9 1
    11    16    17 1
    12    16    14 1
    13    13    14 1
    14     7     2 1
    15     2     1 1
    16     2     3 1
    17     6     9 1
    18     6     3 1
    19     9    10 1
    20    14    15 1
    21     4     3 1
    22     4     5 1
    23    10    11 1
    24     1    23 1
    25     2    24 1
    26     3    25 1
    27     4    26 1
    28     4    27 1
    29     5    28 1
    30     7    29 1
    31     8    30 1
    32     8    31 1
    33     9    32 1
    34    11    33 1
    35    11    34 1
    36    11    35 1
    37    12    36 1
    38    12    37 1
    39    13    38 1
    40    14    39 1
    41    15    40 1
    42    16    41 1
    43    17    42 1
    44    18    43 1
    45    19    44 1
    46    20    45 1
    47    22    46 1
    48    22    47 1
    49    22    48 1
@<TRIPOS>SUBSTRUCTURE
     1 DTK         1 TEMP              0 ****  ****    0 ROOT
