@<TRIPOS>MOLECULE
DTL
   18    17     1     0     0
SMALL
bcc


@<TRIPOS>ATOM
      1 C1          0.0130   -0.0070   -0.0460 c3        1 DTL      0.095400
      2 C2          1.5360    0.1440   -0.0060 c3        1 DTL      0.148100
      3 C3          2.0340    0.1400    1.4480 c3        1 DTL      0.148100
      4 C4          3.5560   -0.0200    1.4880 c3        1 DTL      0.095400
      5 O1         -0.3500    0.0170   -1.4190 oh        1 DTL     -0.618800
      6 O2          2.1790   -0.9110   -0.7030 oh        1 DTL     -0.602800
      7 O3          1.3850   -0.9140    2.1420 oh        1 DTL     -0.602800
      8 O4          3.9200   -0.0030    2.8610 oh        1 DTL     -0.618800
      9 H1C1       -0.4740    0.8450    0.4950 h1        1 DTL      0.049200
     10 H1C2       -0.2880   -0.9800    0.4270 h1        1 DTL      0.049200
     11 H2          1.8320    1.1210   -0.4840 h1        1 DTL      0.047700
     12 H3          1.7430    1.1170    1.9300 h1        1 DTL      0.047700
     13 H4C1        3.8510   -0.9920    1.0110 h1        1 DTL      0.049200
     14 H4C2        4.0480    0.8310    0.9500 h1        1 DTL      0.049200
     15 H1         -1.2750   -0.2480   -1.4650 ho        1 DTL      0.410000
     16 HA          1.6860   -1.0420   -1.5240 ho        1 DTL      0.422000
     17 HB          1.8770   -1.0500    2.9630 ho        1 DTL      0.422000
     18 H4          4.8430   -0.2740    2.9060 ho        1 DTL      0.410000
@<TRIPOS>BOND
     1    1    2 1   
     2    1    5 1   
     3    1    9 1   
     4    1   10 1   
     5    2    3 1   
     6    2    6 1   
     7    2   11 1   
     8    3    4 1   
     9    3    7 1   
    10    3   12 1   
    11    4    8 1   
    12    4   13 1   
    13    4   14 1   
    14    5   15 1   
    15    6   16 1   
    16    7   17 1   
    17    8   18 1   
@<TRIPOS>SUBSTRUCTURE
     1 DTL         1 TEMP              0 ****  ****    0 ROOT
