@<TRIPOS>MOLECULE
molecule
   18    17     1     0     0
SMALL
bcc


@<TRIPOS>ATOM
      1 C1           0.0000     0.0000     0.0000 c3         1 DTL       0.118400
      2 C2           1.5300     0.0000     0.0000 c3         1 DTL       0.154100
      3 C3           2.0400     0.0000     1.4430 c3         1 DTL       0.154100
      4 C4           3.5650    -0.1260     1.4450 c3         1 DTL       0.118400
      5 O1          -0.4760     0.1170    -1.3420 oh         1 DTL      -0.617800
      6 O2           2.0060    -1.1670    -0.6730 oh         1 DTL      -0.586800
      7 O3           1.4700    -1.1030     2.1500 oh         1 DTL      -0.586800
      8 O4           4.0500    -0.0080     2.7840 oh         1 DTL      -0.617800
      9 H1C1        -0.3610     0.8370     0.5860 h1         1 DTL       0.037700
     10 H1C2        -0.3610    -0.9260     0.4320 h1         1 DTL       0.037700
     11 H2           1.8910     0.8840    -0.5110 h1         1 DTL       0.043700
     12 H3           1.7540     0.9260     1.9270 h1         1 DTL       0.043700
     13 H4C1         3.9930     0.6610     0.8350 h1         1 DTL       0.037700
     14 H4C2         3.8480    -1.0900     1.0420 h1         1 DTL       0.037700
     15 H1          -1.4130     0.2280    -1.3350 ho         1 DTL       0.406000
     16 HA           2.2090    -0.9520    -1.5690 ho         1 DTL       0.407000
     17 HB           1.2860    -0.8460     3.0390 ho         1 DTL       0.407000
     18 H4           4.9930     0.0250     2.7750 ho         1 DTL       0.406000
@<TRIPOS>BOND
     1     1     2 1
     2     1     5 1
     3     1     9 1
     4     1    10 1
     5     2     3 1
     6     2     6 1
     7     2    11 1
     8     3     4 1
     9     3     7 1
    10     3    12 1
    11     4     8 1
    12     4    13 1
    13     4    14 1
    14     5    15 1
    15     6    16 1
    16     7    17 1
    17     8    18 1
@<TRIPOS>SUBSTRUCTURE
     1 DTL         1 TEMP              0 ****  ****    0 ROOT
