@<TRIPOS>MOLECULE
molecule
   49    51     1     0     0
SMALL
bcc


@<TRIPOS>ATOM
      1 C2B          0.0000     0.0000     0.0000 ca         1 DTM       0.988900
      2 C4B         -0.1430     0.0010     2.3090 ca         1 DTM       0.778200
      3 C4A          1.2720     0.0010     2.3690 ca         1 DTM      -0.370600
      4 C5B          1.9640    -0.0040     3.5860 ca         1 DTM      -0.133000
      5 C6B          3.3480     0.0000     3.5430 ca         1 DTM       0.040300
      6 C7'          4.0000    -0.0000     2.3100 ca         1 DTM       0.421200
      7 C8A          2.0000     0.0000     1.1550 ca         1 DTM       0.735300
      8 C9'          5.5520    -0.0000     4.6810 c3         1 DTM       0.285100
      9 C1'          6.0540    -1.4220     4.6640 ca         1 DTM      -0.050300
     10 C2'          6.2420    -2.0710     3.4600 ca         1 DTM      -0.240500
     11 C3'          6.7030    -3.3790     3.4400 ca         1 DTM       0.137100
     12 C4'          6.9700    -4.0370     4.6340 ca         1 DTM       0.037100
     13 C5'          6.7850    -3.3790     5.8420 ca         1 DTM       0.137100
     14 C6'          6.3230    -2.0710     5.8540 ca         1 DTM      -0.240500
     15 C31          6.5270    -3.0930     1.2260 c3         1 DTM       0.101700
     16 C41          6.2700    -6.1650     4.6630 c3         1 DTM       0.115700
     17 C51          6.7590    -3.0930     8.0630 c3         1 DTM       0.101700
     18 CN'          3.3990     0.0010     6.0240 c3         1 DTM       0.234100
     19 N1'          1.3180     0.0000     0.0000 nb         1 DTM      -0.817000
     20 N2'         -0.6620    -0.0010    -1.2140 nv         1 DTM      -0.994500
     21 N3'         -0.7210     0.0000     1.1170 nb         1 DTM      -0.873000
     22 N4'         -0.8990     0.0000     3.4620 nv         1 DTM      -0.991500
     23 N8'          3.3340    -0.0000     1.1780 nb         1 DTM      -0.659000
     24 N9'          4.0890     0.0000     4.7310 nh         1 DTM      -0.732000
     25 O3'          6.8880    -4.0180     2.2530 os         1 DTM      -0.279400
     26 O4'          7.4220    -5.3210     4.6180 os         1 DTM      -0.296900
     27 O5'          7.0490    -4.0170     7.0130 os         1 DTM      -0.279400
     28 H5'          1.4340    -0.0040     4.5300 ha         1 DTM       0.130000
     29 H7'          5.0830     0.0040     2.2850 h4         1 DTM       0.026100
     30 HC91         5.8830     0.5110     3.7850 h1         1 DTM       0.058200
     31 HC92         5.9430     0.5100     5.5530 h1         1 DTM       0.058200
     32 H2'          6.0340    -1.5570     2.5290 ha         1 DTM       0.147000
     33 H6'          6.1790    -1.5570     6.7960 ha         1 DTM       0.147000
     34 H311         5.4930    -2.7950     1.3540 h1         1 DTM       0.046200
     35 H312         7.1650    -2.2190     1.2860 h1         1 DTM       0.046200
     36 H313         6.6500    -3.5630     0.2580 h1         1 DTM       0.046200
     37 H411         5.5850    -5.8830     3.8730 h1         1 DTM       0.037033
     38 H412         6.5730    -7.1960     4.5280 h1         1 DTM       0.037033
     39 H413         5.7790    -6.0550     5.6230 h1         1 DTM       0.037033
     40 H511         7.3880    -2.2170     7.9580 h1         1 DTM       0.046200
     41 H512         6.9510    -3.5620     9.0210 h1         1 DTM       0.046200
     42 H513         5.7180    -2.7980     8.0080 h1         1 DTM       0.046200
     43 HCN1         4.1250     0.1030     6.8210 h1         1 DTM       0.034367
     44 HCN2         2.8580    -0.9300     6.1450 h1         1 DTM       0.034367
     45 HCN3         2.7030     0.8300     6.0610 h1         1 DTM       0.034367
     46 HN21        -0.1860     0.2930    -2.0440 hn         1 DTM       0.449300
     47 HN22        -1.6170    -0.2960    -1.2630 hn         1 DTM       0.449300
     48 HN41        -1.8980     0.0120     3.4050 hn         1 DTM       0.445300
     49 HN42        -0.4490     0.0000     4.3550 hn         1 DTM       0.445300
@<TRIPOS>BOND
     1     1    19 ar
     2     1    20 1
     3     1    21 ar
     4     2     3 ar
     5     2    21 ar
     6     2    22 1
     7     3     4 ar
     8     3     7 ar
     9     4     5 ar
    10     4    28 1
    11     5     6 ar
    12     5    24 1
    13     6    23 ar
    14     6    29 1
    15     7    19 ar
    16     7    23 ar
    17     8     9 1
    18     8    24 1
    19     8    30 1
    20     8    31 1
    21     9    10 ar
    22     9    14 ar
    23    10    11 ar
    24    10    32 1
    25    11    12 ar
    26    11    25 1
    27    12    13 ar
    28    12    26 1
    29    13    14 ar
    30    13    27 1
    31    14    33 1
    32    15    25 1
    33    15    34 1
    34    15    35 1
    35    15    36 1
    36    16    26 1
    37    16    37 1
    38    16    38 1
    39    16    39 1
    40    17    27 1
    41    17    40 1
    42    17    41 1
    43    17    42 1
    44    18    24 1
    45    18    43 1
    46    18    44 1
    47    18    45 1
    48    20    46 1
    49    20    47 1
    50    22    48 1
    51    22    49 1
@<TRIPOS>SUBSTRUCTURE
     1 DTM         1 TEMP              0 ****  ****    0 ROOT
