@<TRIPOS>MOLECULE
molecule
    6     5     1     0     0
SMALL
bcc


@<TRIPOS>ATOM
      1 S1           0.9700    -0.3320     0.3430 s4         1 DTN       0.118800
      2 O1           1.1480    -0.8330    -1.0300 o          1 DTN      -0.559150
      3 O2           1.7480     0.9170     0.3430 o          1 DTN      -0.559150
      4 S2          -0.9700     0.3320     0.3430 s4         1 DTN       0.118800
      5 O3          -1.1480     0.8330    -1.0290 o          1 DTN      -0.559150
      6 O4          -1.7480    -0.9170     0.3430 o          1 DTN      -0.559150
@<TRIPOS>BOND
     1     1     2 1
     2     1     3 1
     3     1     4 1
     4     4     5 1
     5     4     6 1
@<TRIPOS>SUBSTRUCTURE
     1 DTN         1 TEMP              0 ****  ****    0 ROOT
