@<TRIPOS>MOLECULE
DTO
   19    18     1     0     0
SMALL
bcc


@<TRIPOS>ATOM
      1 S1          0.2270    0.6530    0.1760 ss        1 DTO     -0.025300
      2 O1          1.0630   -0.8040   -0.1290 oh        1 DTO     -0.507800
      3 C1         -0.2330    0.4010    1.8560 c3        1 DTO     -0.103300
      4 C2         -1.7380    0.3210    2.0540 c3        1 DTO      0.155100
      5 O2         -2.3130   -0.8010    1.4020 oh        1 DTO     -0.594800
      6 C3         -2.0750    0.2040    3.5560 c3        1 DTO      0.161100
      7 O3         -1.2290   -0.7920    4.1070 oh        1 DTO     -0.595800
      8 C4         -3.5470   -0.1300    3.7360 c3        1 DTO     -0.028300
      9 S4         -3.9850    0.0710    5.4430 sh        1 DTO     -0.392900
     10 H1          0.4520   -1.3690   -0.6100 ho        1 DTO      0.410000
     11 H12         0.2440   -0.5390    2.2400 h1        1 DTO      0.106700
     12 H11         0.1660    1.2510    2.4630 h1        1 DTO      0.106700
     13 H2         -2.2290    1.2580    1.6590 h1        1 DTO      0.043700
     14 H2O1       -1.9630   -0.8030    0.5000 ho        1 DTO      0.405000
     15 H3         -1.8400    1.1940    4.0450 h1        1 DTO      0.050700
     16 H3O1       -1.5530   -0.9630    5.0030 ho        1 DTO      0.419000
     17 H42        -4.1630    0.5620    3.1130 h1        1 DTO      0.087700
     18 H41        -3.7360   -1.1730    3.3830 h1        1 DTO      0.087700
     19 H4S        -4.8130   -0.9510    5.5770 hs        1 DTO      0.213800
@<TRIPOS>BOND
     1    1    2 1   
     2    1    3 1   
     3    2   10 1   
     4    3    4 1   
     5    3   11 1   
     6    3   12 1   
     7    4    5 1   
     8    4    6 1   
     9    4   13 1   
    10    5   14 1   
    11    6    7 1   
    12    6    8 1   
    13    6   15 1   
    14    7   16 1   
    15    8    9 1   
    16    8   17 1   
    17    8   18 1   
    18    9   19 1   
@<TRIPOS>SUBSTRUCTURE
     1 DTO         1 TEMP              0 ****  ****    0 ROOT
