@<TRIPOS>MOLECULE
molecule
   19    18     1     0     0
SMALL
bcc


@<TRIPOS>ATOM
      1 S1           0.0000     0.0000     0.0000 ss         1 DTO      -0.033300
      2 O1           1.5220     0.0000     0.0000 oh         1 DTO      -0.584800
      3 C1          -0.3170     0.0000     1.7850 c3         1 DTO      -0.031300
      4 C2          -1.8250    -0.0000     2.0370 c3         1 DTO       0.167100
      5 O2          -2.4050    -1.1660     1.4520 oh         1 DTO      -0.578800
      6 C3          -2.0920     0.0010     3.5420 c3         1 DTO       0.169100
      7 O3          -1.5110    -1.1650     4.1290 oh         1 DTO      -0.577800
      8 C4          -3.6010     0.0000     3.7940 c3         1 DTO       0.018700
      9 S4          -3.9170     0.0010     5.5790 sh         1 DTO      -0.433900
     10 H1           1.8360     0.0390    -0.8880 ho         1 DTO       0.456000
     11 H12          0.1240    -0.8840     2.2300 h1         1 DTO       0.081200
     12 H11          0.1230     0.8850     2.2300 h1         1 DTO       0.081200
     13 H2          -2.2660     0.8840     1.5920 h1         1 DTO       0.041700
     14 H2O1        -2.8230    -0.9350     0.6390 ho         1 DTO       0.402000
     15 H3          -1.6520     0.8850     3.9860 h1         1 DTO       0.048700
     16 H3O1        -1.1410    -0.9440     4.9680 ho         1 DTO       0.408000
     17 H42         -4.0410     0.8840     3.3490 h1         1 DTO       0.070200
     18 H41         -4.0410    -0.8850     3.3500 h1         1 DTO       0.070200
     19 H4S         -5.2150     0.1730     5.7990 hs         1 DTO       0.225800
@<TRIPOS>BOND
     1     1     2 1
     2     1     3 1
     3     2    10 1
     4     3     4 1
     5     3    11 1
     6     3    12 1
     7     4     5 1
     8     4     6 1
     9     4    13 1
    10     5    14 1
    11     6     7 1
    12     6     8 1
    13     6    15 1
    14     7    16 1
    15     8     9 1
    16     8    17 1
    17     8    18 1
    18     9    19 1
@<TRIPOS>SUBSTRUCTURE
     1 DTO         1 TEMP              0 ****  ****    0 ROOT
