@<TRIPOS>MOLECULE
molecule
   42    44     1     0     0
SMALL
bcc


@<TRIPOS>ATOM
      1 PG           0.0000     0.0000     0.0000 p5         1 DTP       1.208900
      2 O1G          1.4790     0.0000     0.0000 o          1 DTP      -0.806833
      3 O2G         -0.5370     0.0000     1.5180 o          1 DTP      -0.806833
      4 O3G         -0.5370    -1.3140    -0.7580 o          1 DTP      -0.806833
      5 PB           0.0350     1.2490    -2.2630 p5         1 DTP       1.268800
      6 O1B         -0.4600     0.0220    -2.9250 o          1 DTP      -0.682500
      7 O2B          1.6430     1.2290    -2.2260 o          1 DTP      -0.682500
      8 O3B         -0.5370     1.3150    -0.7590 os         1 DTP      -0.657800
      9 PA           0.1390     2.4110    -4.5700 p5         1 DTP       1.254800
     10 O1A          1.6150     2.3730    -4.5000 o          1 DTP      -0.791000
     11 O2A         -0.4020     1.0560    -5.2510 o          1 DTP      -0.791000
     12 O3A         -0.4670     2.5410    -3.0850 os         1 DTP      -0.648800
     13 O5'         -0.3250     3.6760    -5.4510 os         1 DTP      -0.539200
     14 C5'          0.2390     3.5030    -6.7510 c3         1 DTP       0.171400
     15 C4'         -0.1640     4.6790    -7.6430 c3         1 DTP       0.138100
     16 O4'          0.4220     5.9100    -7.1640 os         1 DTP      -0.376600
     17 C3'          0.4350     4.5180    -9.0630 c3         1 DTP       0.101100
     18 O3'         -0.4160     3.7220    -9.8900 oh         1 DTP      -0.600800
     19 C2'          0.4790     5.9820    -9.5640 c3         1 DTP      -0.161400
     20 C1'          0.4360     6.8240    -8.2750 c3         1 DTP       0.260800
     21 N9           1.6220     7.6790    -8.2000 na         1 DTP      -0.266000
     22 C8           2.8160     7.3550    -7.6260 cc         1 DTP       0.360700
     23 N7           3.6470     8.3500    -7.7390 nd         1 DTP      -0.619100
     24 C5           3.0440     9.3710    -8.3940 ca         1 DTP      -0.239200
     25 C6           3.4350    10.6630    -8.7850 ca         1 DTP       0.650200
     26 N6           4.7080    11.1290    -8.5120 nv         1 DTP      -1.023500
     27 N1           2.5550    11.4240    -9.4260 nb         1 DTP      -0.824000
     28 C2           1.3370    10.9880    -9.6890 ca         1 DTP       0.551900
     29 N3           0.9260     9.7880    -9.3370 nb         1 DTP      -0.829000
     30 C4           1.7360     8.9550    -8.6930 ca         1 DTP       0.470800
     31 H5'1         1.3190     3.4630    -6.6730 h1         1 DTP       0.062200
     32 H5'2        -0.1270     2.5800    -7.1830 h1         1 DTP       0.062200
     33 H4'         -1.2420     4.7700    -7.6970 h1         1 DTP       0.057700
     34 H3'          1.4340     4.1010    -9.0120 h1         1 DTP       0.056700
     35 HO3'         0.1090     3.2280   -10.4980 ho         1 DTP       0.385000
     36 H2'1         1.3990     6.1680   -10.1060 hc         1 DTP       0.051200
     37 H2'2        -0.3830     6.1950   -10.1840 hc         1 DTP       0.051200
     38 H1'         -0.4620     7.4290    -8.2630 h2         1 DTP       0.066700
     39 H8           3.0390     6.4100    -7.1470 h5         1 DTP       0.089800
     40 HN61         4.9760    12.0500    -8.7990 hn         1 DTP       0.414800
     41 HN62         5.3620    10.5460    -8.0290 hn         1 DTP       0.414800
     42 H2           0.6500    11.6410   -10.2140 h5         1 DTP       0.006100
@<TRIPOS>BOND
     1     1     2 1
     2     1     3 1
     3     1     4 1
     4     1     8 1
     5     5     6 1
     6     5     7 1
     7     5     8 1
     8     5    12 1
     9     9    10 1
    10     9    11 1
    11     9    12 1
    12     9    13 1
    13    13    14 1
    14    14    15 1
    15    14    31 1
    16    14    32 1
    17    15    16 1
    18    15    17 1
    19    15    33 1
    20    16    20 1
    21    17    18 1
    22    17    19 1
    23    17    34 1
    24    18    35 1
    25    19    20 1
    26    19    36 1
    27    19    37 1
    28    20    21 1
    29    20    38 1
    30    21    22 1
    31    21    30 1
    32    22    23 2
    33    22    39 1
    34    23    24 1
    35    24    25 ar
    36    24    30 ar
    37    25    26 1
    38    25    27 ar
    39    26    40 1
    40    26    41 1
    41    27    28 ar
    42    28    29 ar
    43    28    42 1
    44    29    30 ar
@<TRIPOS>SUBSTRUCTURE
     1 DTP         1 TEMP              0 ****  ****    0 ROOT
