@<TRIPOS>MOLECULE
molecule
   37    39     1     0     0
SMALL
bcc


@<TRIPOS>ATOM
      1 N1           0.0000     0.0000     0.0000 nb         1 DTQ      -0.815000
      2 C2           1.3240     0.0000     0.0000 ca         1 DTQ       0.722900
      3 N3           2.0360     0.0000     1.1010 nb         1 DTQ      -0.770000
      4 C4           1.4340    -0.0010     2.3010 ca         1 DTQ       0.485600
      5 C5           0.0180    -0.0000     2.3520 ca         1 DTQ      -0.314600
      6 C6          -0.6940    -0.0000     1.1290 ca         1 DTQ       0.738200
      7 C7           2.1660    -0.0010     3.4940 ca         1 DTQ      -0.270300
      8 C8           1.5000    -0.0030     4.6990 ca         1 DTQ       0.141100
      9 C9           0.0990    -0.0090     4.7420 ca         1 DTQ       0.097100
     10 C10         -0.6350    -0.0020     3.5900 ca         1 DTQ      -0.180000
     11 N12         -2.0740    -0.0010     1.1140 nu         1 DTQ      -0.758300
     12 C14         -2.7590     0.1170    -0.0990 ca         1 DTQ       0.164600
     13 C15         -2.2230     0.8750    -1.1290 ca         1 DTQ      -0.147000
     14 C16         -2.9030     0.9850    -2.3320 ca         1 DTQ       0.122100
     15 C17         -4.1220     0.3450    -2.5010 ca         1 DTQ      -0.174000
     16 C18         -4.6570    -0.4070    -1.4710 ca         1 DTQ      -0.097000
     17 C19         -3.9800    -0.5230    -0.2740 ca         1 DTQ      -0.177000
     18 O21         -2.3780     1.7240    -3.3450 oh         1 DTQ      -0.518100
     19 O26          2.2070    -0.0040     5.8580 os         1 DTQ      -0.275900
     20 C27          3.5900    -0.0030     5.4980 c3         1 DTQ       0.097700
     21 O31         -0.5360    -0.0090     5.9440 os         1 DTQ      -0.276900
     22 C32         -1.9390    -0.0030     5.6690 c3         1 DTQ       0.101700
     23 H21          1.8420     0.0000    -0.9520 h5         1 DTQ       0.060100
     24 H71          3.2490     0.0030     3.4690 ha         1 DTQ       0.171000
     25 H101        -1.7180    -0.0070     3.6340 ha         1 DTQ       0.141000
     26 H121        -2.5840    -0.1200     1.9670 hn         1 DTQ       0.456800
     27 H151        -1.2710     1.3750    -0.9960 ha         1 DTQ       0.171000
     28 H171        -4.6540     0.4320    -3.4410 ha         1 DTQ       0.140000
     29 H181        -5.6090    -0.9060    -1.6050 ha         1 DTQ       0.134000
     30 H191        -4.4020    -1.1120     0.5310 ha         1 DTQ       0.128000
     31 H211        -2.7130     2.6040    -3.2980 ho         1 DTQ       0.418000
     32 H271         3.8110     0.8830     4.9150 h1         1 DTQ       0.049700
     33 H272         4.1970    -0.0050     6.3960 h1         1 DTQ       0.049700
     34 H273         3.8110    -0.8860     4.9110 h1         1 DTQ       0.049700
     35 H321        -2.1920     0.8820     5.0980 h1         1 DTQ       0.044033
     36 H322        -2.2000    -0.8870     5.0990 h1         1 DTQ       0.044033
     37 H323        -2.4900    -0.0010     6.6020 h1         1 DTQ       0.044033
@<TRIPOS>BOND
     1     1     2 ar
     2     1     6 ar
     3     2     3 ar
     4     2    23 1
     5     3     4 ar
     6     4     5 ar
     7     4     7 ar
     8     5     6 ar
     9     5    10 ar
    10     6    11 1
    11     7     8 ar
    12     7    24 1
    13     8     9 ar
    14     8    19 1
    15     9    10 ar
    16     9    21 1
    17    10    25 1
    18    11    12 1
    19    11    26 1
    20    12    13 ar
    21    12    17 ar
    22    13    14 ar
    23    13    27 1
    24    14    15 ar
    25    14    18 1
    26    15    16 ar
    27    15    28 1
    28    16    17 ar
    29    16    29 1
    30    17    30 1
    31    18    31 1
    32    19    20 1
    33    20    32 1
    34    20    33 1
    35    20    34 1
    36    21    22 1
    37    22    35 1
    38    22    36 1
    39    22    37 1
@<TRIPOS>SUBSTRUCTURE
     1 DTQ         1 TEMP              0 ****  ****    0 ROOT
