@<TRIPOS>MOLECULE
molecule
   29    30     1     0     0
SMALL
bcc


@<TRIPOS>ATOM
      1 C12          0.0000     0.0000     0.0000 ca         1 DTS      -0.159000
      2 C13          1.3830     0.0000     0.0000 ca         1 DTS      -0.054000
      3 C11         -0.6920     0.0060     1.1970 ca         1 DTS      -0.116000
      4 C10         -0.0010     0.0130     2.3940 ca         1 DTS      -0.159000
      5 C9           1.3810     0.0120     2.3950 ca         1 DTS      -0.054000
      6 C8           2.0720     0.0000     1.1980 ca         1 DTS      -0.099500
      7 C7           4.2430    -1.7670     1.2180 c3         1 DTS      -0.001800
      8 C4           7.7570    -1.9060     2.8140 ca         1 DTS      -0.148000
      9 C5           6.3780    -1.8060     2.7460 ca         1 DTS      -0.121000
     10 C6           5.7480    -1.7480     1.5210 ca         1 DTS      -0.082300
     11 C3           8.5120    -1.9430     1.6550 ca         1 DTS      -0.162000
     12 C2           7.8940    -1.8850     0.4230 ca         1 DTS      -0.092000
     13 C1           6.5040    -1.7910     0.3470 ca         1 DTS      -0.121600
     14 O2           4.1540     0.5740     2.4600 o          1 DTS      -0.564200
     15 S            3.8340    -0.0000     1.1990 sx         1 DTS       0.385400
     16 C            5.8300    -1.8460    -0.9670 c          1 DTS       0.887200
     17 O1           4.6220    -1.7480    -1.0350 o          1 DTS      -0.834800
     18 O            6.5570    -2.0040    -2.0900 o          1 DTS      -0.834800
     19 H10         -0.5410    -0.0050    -0.9380 ha         1 DTS       0.117500
     20 H11          1.9240     0.0590    -0.9360 ha         1 DTS       0.148500
     21 H9          -1.7750     0.0300     1.1960 ha         1 DTS       0.111000
     22 H8          -0.5430     0.0160     3.3320 ha         1 DTS       0.117500
     23 H7           1.9220     0.0650     3.3320 ha         1 DTS       0.148500
     24 H5           3.7050    -2.1400     2.0820 h1         1 DTS       0.103200
     25 H6           4.0530    -2.4120     0.3690 h1         1 DTS       0.103200
     26 H2           9.5910    -2.0190     1.7160 ha         1 DTS       0.105000
     27 H1           8.4860    -1.9170    -0.4840 ha         1 DTS       0.152000
     28 H3           8.2470    -1.9510     3.7790 ha         1 DTS       0.105000
     29 H4           5.7930    -1.7780     3.6570 ha         1 DTS       0.119000
@<TRIPOS>BOND
     1    14    15 2
     2     4     5 ar
     3     4     3 ar
     4     5     6 ar
     5     3     1 ar
     6     6    15 1
     7     6     2 ar
     8    15     7 1
     9     1     2 ar
    10    17    16 1
    11    18    16 1
    12    16    13 1
    13    13    12 ar
    14    13    10 ar
    15    12    11 ar
    16     7    10 1
    17    10     9 ar
    18    11     8 ar
    19     9     8 ar
    20     1    19 1
    21     2    20 1
    22     3    21 1
    23     4    22 1
    24     5    23 1
    25     7    24 1
    26     7    25 1
    27     8    28 1
    28     9    29 1
    29    11    26 1
    30    12    27 1
@<TRIPOS>SUBSTRUCTURE
     1 DTS         1 TEMP              0 ****  ****    0 ROOT
