@<TRIPOS>MOLECULE
molecule
   18    17     1     0     0
SMALL
bcc


@<TRIPOS>ATOM
      1 S1           0.0000     0.0000     0.0000 sh         1 DTT      -0.435400
      2 C1           1.8130     0.0000     0.0000 c3         1 DTT       0.019700
      3 C2           2.3240     0.0000     1.4420 c3         1 DTT       0.169100
      4 O2           1.8470     1.1650     2.1160 oh         1 DTT      -0.578800
      5 C3           3.8530     0.0000     1.4420 c3         1 DTT       0.169100
      6 O3           4.3290     1.1660     0.7690 oh         1 DTT      -0.578800
      7 C4           4.3640    -0.0010     2.8840 c3         1 DTT       0.019700
      8 S4           6.1770     0.0000     2.8840 sh         1 DTT      -0.435400
      9 HS1         -0.4430    -0.1720    -1.2400 hs         1 DTT       0.226800
     10 H11          2.1740    -0.8840    -0.5110 h1         1 DTT       0.072200
     11 H12          2.1740     0.8840    -0.5110 h1         1 DTT       0.072200
     12 H2           1.9630    -0.8850     1.9520 h1         1 DTT       0.046700
     13 HO2          1.0860     0.9440     2.6260 ho         1 DTT       0.408000
     14 H3           4.2140    -0.8840     0.9310 h1         1 DTT       0.046700
     15 HO3          5.0900     0.9460     0.2590 ho         1 DTT       0.408000
     16 H41          4.0020     0.8830     3.3950 h1         1 DTT       0.072200
     17 H42          4.0030    -0.8860     3.3940 h1         1 DTT       0.072200
     18 HS2          6.6190    -0.1730     4.1230 hs         1 DTT       0.226800
@<TRIPOS>BOND
     1     1     2 1
     2     1     9 1
     3     2     3 1
     4     2    10 1
     5     2    11 1
     6     3     4 1
     7     3     5 1
     8     3    12 1
     9     4    13 1
    10     5     6 1
    11     5     7 1
    12     5    14 1
    13     6    15 1
    14     7     8 1
    15     7    16 1
    16     7    17 1
    17     8    18 1
@<TRIPOS>SUBSTRUCTURE
     1 DTT         1 TEMP              0 ****  ****    0 ROOT
