@<TRIPOS>MOLECULE
molecule
   18    17     1     0     0
SMALL
bcc


@<TRIPOS>ATOM
      1 S1           0.0000     0.0000     0.0000 sh         1 DTU      -0.437900
      2 C1           1.8140     0.0000     0.0000 c3         1 DTU       0.022700
      3 C2           2.3240     0.0000     1.4420 c3         1 DTU       0.165600
      4 O2           1.8470    -1.1660     2.1160 oh         1 DTU      -0.599800
      5 C3           3.8530    -0.0010     1.4430 c3         1 DTU       0.165600
      6 O3           4.3310     1.1650     0.7690 oh         1 DTU      -0.599800
      7 C4           4.3630    -0.0010     2.8850 c3         1 DTU       0.022700
      8 S4           6.1770    -0.0010     2.8850 sh         1 DTU      -0.437900
      9 H1          -0.4430     0.1730    -1.2400 hs         1 DTU       0.227800
     10 H1C1         2.1750     0.8840    -0.5110 h1         1 DTU       0.071700
     11 H1C2         2.1750    -0.8840    -0.5110 h1         1 DTU       0.071700
     12 H2           1.9640     0.8850     1.9520 h1         1 DTU       0.059700
     13 HA           1.0820    -0.9450     2.6210 ho         1 DTU       0.418000
     14 H3           4.2130    -0.8860     0.9330 h1         1 DTU       0.059700
     15 HB           5.0960     0.9440     0.2630 ho         1 DTU       0.418000
     16 H4C1         4.0020     0.8830     3.3950 h1         1 DTU       0.071700
     17 H4C2         4.0020    -0.8860     3.3950 h1         1 DTU       0.071700
     18 H4           6.6200    -0.1740     4.1240 hs         1 DTU       0.227800
@<TRIPOS>BOND
     1     1     2 1
     2     1     9 1
     3     2     3 1
     4     2    10 1
     5     2    11 1
     6     3     4 1
     7     3     5 1
     8     3    12 1
     9     4    13 1
    10     5     6 1
    11     5     7 1
    12     5    14 1
    13     6    15 1
    14     7     8 1
    15     7    16 1
    16     7    17 1
    17     8    18 1
@<TRIPOS>SUBSTRUCTURE
     1 DTU         1 TEMP              0 ****  ****    0 ROOT
