@<TRIPOS>MOLECULE
DTU
   18    17     1     0     0
SMALL
bcc


@<TRIPOS>ATOM
      1 S1          0.0330    0.4030    0.1130 sh        1 DTU     -0.392900
      2 C1          1.7700    0.0430    0.0360 c3        1 DTU     -0.030300
      3 C2          2.3160    0.0170    1.4550 c3        1 DTU      0.158100
      4 O2          1.9110   -1.1500    2.1550 oh        1 DTU     -0.605800
      5 C3          3.8610   -0.0180    1.4300 c3        1 DTU      0.158100
      6 O3          4.2670    1.1490    0.7290 oh        1 DTU     -0.605800
      7 C4          4.4070   -0.0450    2.8480 c3        1 DTU     -0.030300
      8 S4          6.1440   -0.4040    2.7720 sh        1 DTU     -0.392900
      9 H1         -0.3620   -0.2130   -0.9880 hs        1 DTU      0.211800
     10 H1C1        2.2960    0.8420   -0.5430 h1        1 DTU      0.086700
     11 H1C2        1.9520   -0.9370   -0.4630 h1        1 DTU      0.086700
     12 H2          1.9740    0.9330    2.0150 h1        1 DTU      0.062700
     13 HA          0.9470   -1.1960    2.0740 ho        1 DTU      0.422000
     14 H3          4.2040   -0.9340    0.8700 h1        1 DTU      0.062700
     15 HB          5.2300    1.1950    0.8110 ho        1 DTU      0.422000
     16 H4C1        4.2250    0.9360    3.3480 h1        1 DTU      0.086700
     17 H4C2        3.8810   -0.8440    3.4270 h1        1 DTU      0.086700
     18 H4          6.5390    0.2130    3.8720 hs        1 DTU      0.211800
@<TRIPOS>BOND
     1    1    2 1   
     2    1    9 1   
     3    2    3 1   
     4    2   10 1   
     5    2   11 1   
     6    3    4 1   
     7    3    5 1   
     8    3   12 1   
     9    4   13 1   
    10    5    6 1   
    11    5    7 1   
    12    5   14 1   
    13    6   15 1   
    14    7    8 1   
    15    7   16 1   
    16    7   17 1   
    17    8   18 1   
@<TRIPOS>SUBSTRUCTURE
     1 DTU         1 TEMP              0 ****  ****    0 ROOT
