@<TRIPOS>MOLECULE
DTV
   18    17     1     0     0
SMALL
bcc


@<TRIPOS>ATOM
      1 S1          0.0340    0.3240    0.0430 sh        1 DTV     -0.395900
      2 C1          1.7760   -0.0100    0.0400 c3        1 DTV     -0.026300
      3 C2          2.3140    0.1570    1.4510 c3        1 DTV      0.161100
      4 O2          1.9070   -0.8970    2.3100 oh        1 DTV     -0.599800
      5 C3          3.8580    0.1710    1.4340 c3        1 DTV      0.161100
      6 O3          4.2830   -0.8730    0.5720 oh        1 DTV     -0.599800
      7 C4          4.3980    0.0090    2.8450 c3        1 DTV     -0.026300
      8 S4          6.1340    0.3740    2.8420 sh        1 DTV     -0.395900
      9 H1         -0.3530   -0.5340   -0.8840 hs        1 DTV      0.213800
     10 H1C1        2.2930    0.7080   -0.6410 h1        1 DTV      0.088200
     11 H1C2        1.9940   -1.0450   -0.3200 h1        1 DTV      0.088200
     12 H2          1.9600    1.1360    1.8870 h1        1 DTV      0.051700
     13 HA          0.9550   -1.0090    2.1770 ho        1 DTV      0.419000
     14 H3          4.1940    1.1580    1.0020 h1        1 DTV      0.051700
     15 HB          5.2380   -0.9680    0.7040 ho        1 DTV      0.419000
     16 H4C1        3.8680    0.7150    3.5280 h1        1 DTV      0.088200
     17 H4C2        4.1990   -1.0310    3.2010 h1        1 DTV      0.088200
     18 H4          6.5370   -0.4800    3.7670 hs        1 DTV      0.213800
@<TRIPOS>BOND
     1    1    2 1   
     2    1    9 1   
     3    2    3 1   
     4    2   10 1   
     5    2   11 1   
     6    3    4 1   
     7    3    5 1   
     8    3   12 1   
     9    4   13 1   
    10    5    6 1   
    11    5    7 1   
    12    5   14 1   
    13    6   15 1   
    14    7    8 1   
    15    7   16 1   
    16    7   17 1   
    17    8   18 1   
@<TRIPOS>SUBSTRUCTURE
     1 DTV         1 TEMP              0 ****  ****    0 ROOT
