@<TRIPOS>MOLECULE
DTW
   51    54     1     0     0
SMALL
bcc


@<TRIPOS>ATOM
      1 C4           0.0000     0.0000     0.0000 ca         1 DTW       0.241800
      2 C5           1.4050     0.0000     0.0000 ca         1 DTW      -0.398800
      3 C6           2.0680     0.0000     1.2380 ca         1 DTW       0.592200
      4 C8           0.7570     0.0010    -2.0780 cc         1 DTW      -0.567200
      5 N1           1.3380    -0.0010     2.3480 nb         1 DTW      -0.644000
      6 N3          -0.6450     0.0040     1.1610 nb         1 DTW      -0.608000
      7 C2           0.0190    -0.0010     2.2980 ca         1 DTW       0.678900
      8 CAC          4.8420    -1.1540    -6.8620 c          1 DTW       0.651100
      9 CAE          4.7490    -1.3460    -5.3300 c3         1 DTW      -0.060400
     10 CAF          4.2330    -0.0390    -4.6740 c3         1 DTW       0.018600
     11 CAG          2.7210    -0.1810    -4.3530 c3         1 DTW       0.218900
     12 CAS         -1.7590     0.0060    -1.8250 c3         1 DTW       0.144800
     13 CAU         -3.0520    -0.4150    -3.6990 c3         1 DTW       0.150100
     14 CAV         -2.8390    -0.5910    -5.2050 c3         1 DTW       0.216800
     15 CAZ         -3.2650     1.0760    -3.3710 c3         1 DTW       0.143100
     16 CBB         -2.1350     1.4090    -2.3670 c3         1 DTW       0.129100
     17 N6           3.4530    -0.0010     1.3000 nv         1 DTW      -0.584500
     18 N7           1.8080     0.0010    -1.2960 na         1 DTW       0.110300
     19 N9          -0.3830    -0.0000    -1.3220 na         1 DTW       0.405900
     20 NAA          4.0250    -1.9200    -9.1000 nz         1 DTW       0.275400
     21 NAB          4.4010    -2.2250    -7.7620 ns         1 DTW      -0.490300
     22 NAW         -2.7560    -2.0190    -5.5220 n2         1 DTW      -0.334200
     23 NAX         -3.4970    -2.4810    -6.2290 n1         1 DTW       0.818000
     24 NAY         -4.2470    -2.9250    -6.9390 n2         1 DTW      -0.402400
     25 OAD          5.3600    -0.1810    -7.3070 o          1 DTW      -0.500100
     26 OAT         -1.8830    -0.8470    -2.9840 os         1 DTW      -0.384600
     27 OBA         -4.5460     1.2770    -2.7680 oh         1 DTW      -0.541800
     28 OBC         -2.6180     2.2480    -1.3170 oh         1 DTW      -0.529800
     29 SAH          2.4980    -0.4130    -2.5440 s4         1 DTW      -0.125300
     30 H1          -0.4480     0.0640     3.2740 h5         1 DTW       0.018100
     31 H2           4.0630    -2.1560    -5.1090 hc         1 DTW       0.053700
     32 H3           5.7290    -1.5860    -4.9360 hc         1 DTW       0.053700
     33 H4           4.7810     0.1460    -3.7580 hc         1 DTW       0.048200
     34 H5           4.3810     0.7900    -5.3560 hc         1 DTW       0.048200
     35 H6           2.1990     0.7130    -4.6690 h1         1 DTW       0.015200
     36 H7           2.3190    -1.0390    -4.8790 h1         1 DTW       0.015200
     37 H8          -2.4540    -0.3010    -1.0540 h2         1 DTW       0.091700
     38 H9          -3.9120    -0.9880    -3.3750 h1         1 DTW       0.054700
     39 H10         -1.8710    -0.1920    -5.4820 h1         1 DTW       0.053700
     40 H11         -3.6160    -0.0620    -5.7440 h1         1 DTW       0.053700
     41 H12         -3.1630     1.6770    -4.2660 h1         1 DTW       0.008700
     42 H13         -1.2930     1.8610    -2.8750 h1         1 DTW       0.032700
     43 H14          3.9350    -0.7790     1.7040 hn         1 DTW       0.289300
     44 H15          3.9710     0.7670     0.9210 hn         1 DTW       0.289300
     45 H16          3.0270    -1.9290    -9.1760 hn         1 DTW       0.218800
     46 H17          4.3700    -1.0130    -9.3450 hn         1 DTW       0.218800
     47 H18          4.3920    -3.1740    -7.4440 hn         1 DTW       0.275500
     48 H19         -4.9570    -2.3470    -7.3440 hn         1 DTW       0.498400
     49 H20         -4.9290     2.0710    -3.1010 ho         1 DTW       0.413000
     50 H21         -2.2180     3.0990    -1.3860 ho         1 DTW       0.406000
     51 HAA3         4.4130    -2.6030    -9.7190 hn         1 DTW       0.218800
@<TRIPOS>BOND
     1     1     2 ar  
     2     1     6 ar  
     3     1    19 1   
     4     2     3 ar  
     5     2    18 1   
     6     3     5 ar  
     7     3    17 1   
     8     4    18 1   
     9     4    19 1   
    10     4    29 2   
    11     5     7 ar  
    12     6     7 ar  
    13     7    30 1   
    14     8     9 1   
    15     8    21 1   
    16     8    25 2   
    17     9    10 1   
    18     9    31 1   
    19     9    32 1   
    20    10    11 1   
    21    10    33 1   
    22    10    34 1   
    23    11    29 1   
    24    11    35 1   
    25    11    36 1   
    26    12    16 1   
    27    12    19 1   
    28    12    26 1   
    29    12    37 1   
    30    13    14 1   
    31    13    15 1   
    32    13    26 1   
    33    13    38 1   
    34    14    22 1   
    35    14    39 1   
    36    14    40 1   
    37    15    16 1   
    38    15    27 1   
    39    15    41 1   
    40    16    28 1   
    41    16    42 1   
    42    17    43 1   
    43    17    44 1   
    44    18    29 1   
    45    20    21 1   
    46    20    45 1   
    47    20    46 1   
    48    20    51 1   
    49    21    47 1   
    50    22    23 2   
    51    23    24 2   
    52    24    48 1   
    53    27    49 1   
    54    28    50 1   
@<TRIPOS>SUBSTRUCTURE
     1 DTW         1 TEMP              0 ****  ****    0 ROOT
