@<TRIPOS>MOLECULE
molecule
   51    53     1     0     0
SMALL
bcc


@<TRIPOS>ATOM
      1 C4           0.0000     0.0000     0.0000 ca         1 DTW       0.511800
      2 C5           1.4050     0.0000     0.0000 ca         1 DTW      -0.201200
      3 C6           2.0680     0.0000     1.2380 ca         1 DTW       0.800200
      4 C8           0.7570     0.0010    -2.0780 cc         1 DTW       0.356700
      5 N1           1.3380    -0.0010     2.3480 nb         1 DTW      -0.803000
      6 N3          -0.6450     0.0040     1.1610 nb         1 DTW      -0.788000
      7 C2           0.0190    -0.0010     2.2980 ca         1 DTW       0.784900
      8 CAC          3.2290    -3.6390    -7.0500 c          1 DTW       0.678100
      9 CAE          2.5470    -2.2960    -6.7180 c3         1 DTW      -0.121400
     10 CAF          2.8790    -1.8950    -5.2660 c3         1 DTW      -0.046400
     11 CAG          1.7620    -0.9860    -4.7150 c3         1 DTW      -0.167300
     12 CAS         -1.7590     0.0060    -1.8250 c3         1 DTW       0.261800
     13 CAU         -3.0520    -0.4150    -3.6990 c3         1 DTW       0.071100
     14 CAV         -2.8390    -0.5910    -5.2050 c3         1 DTW       0.091800
     15 CAZ         -3.2650     1.0760    -3.3710 c3         1 DTW       0.095100
     16 CBB         -2.1350     1.4090    -2.3670 c3         1 DTW       0.110100
     17 N6           3.4530    -0.0010     1.3000 nv         1 DTW      -0.959500
     18 N7           1.8080     0.0010    -1.2960 nd         1 DTW      -0.606100
     19 N9          -0.3830    -0.0000    -1.3220 na         1 DTW      -0.192000
     20 NAA          3.1560    -5.8070    -8.2960 nz         1 DTW      -0.548600
     21 NAB          2.7440    -4.4490    -8.1690 ns         1 DTW      -0.586300
     22 NAW         -2.7560    -2.0190    -5.5220 n2         1 DTW      -0.106200
     23 NAX         -3.4970    -2.4810    -6.2290 n1         1 DTW       0.069000
     24 NAY         -4.2300    -2.9600    -6.9350 n2         1 DTW      -0.204400
     25 OAD          4.1660    -3.9970    -6.4230 o          1 DTW      -0.472100
     26 OAT         -1.8830    -0.8470    -2.9840 os         1 DTW      -0.416600
     27 OBA         -4.5460     1.2770    -2.7680 oh         1 DTW      -0.534800
     28 OBC         -2.6180     2.2480    -1.3170 oh         1 DTW      -0.534800
     29 SAH          2.2550    -0.3410    -3.0760 ss         1 DTW       0.128700
     30 H1          -0.5230     0.1160     3.2290 h5         1 DTW       0.089100
     31 H2           1.4740    -2.4000    -6.8270 hc         1 DTW       0.078200
     32 H3           2.9060    -1.5310    -7.3950 hc         1 DTW       0.078200
     33 H4           2.9560    -2.7850    -4.6540 hc         1 DTW       0.078700
     34 H5           3.8220    -1.3610    -5.2460 hc         1 DTW       0.078700
     35 H6           1.6010    -0.1590    -5.3950 h1         1 DTW       0.045200
     36 H7           0.8470    -1.5580    -4.6170 h1         1 DTW       0.045200
     37 H8          -2.4540    -0.3010    -1.0540 h2         1 DTW       0.148700
     38 H9          -3.9120    -0.9880    -3.3750 h1         1 DTW       0.135700
     39 H10         -2.3910     0.3060    -5.6140 h1         1 DTW       0.216700
     40 H11         -2.1830    -1.4350    -5.3810 h1         1 DTW       0.216700
     41 H12         -3.1630     1.6770    -4.2660 h1         1 DTW       0.051700
     42 H13         -1.2930     1.8610    -2.8750 h1         1 DTW       0.070700
     43 H14          3.9140    -0.1510     2.1750 hn         1 DTW       0.462300
     44 H15          3.9910     0.1060     0.4630 hn         1 DTW       0.462300
     45 H16          4.1330    -5.8400    -8.5100 hn         1 DTW       0.469800
     46 H17          2.9860    -6.2890    -7.4360 hn         1 DTW       0.469800
     47 H18          2.1640    -4.0350    -8.8720 hn         1 DTW       0.379500
     48 H19         -4.9520    -2.4100    -7.3560 hn         1 DTW       0.424400
     49 H20         -5.0900     1.7830    -3.3480 ho         1 DTW       0.427000
     50 H21         -2.1960     3.0900    -1.3680 ho         1 DTW       0.429000
     51 HAA3         2.6380    -6.2450    -9.0320 hn         1 DTW       0.469800
@<TRIPOS>BOND
     1    24    23 2
     2    23    22 2
     3    17     3 1
     4    22    14 1
     5    18     2 1
     6    18     4 2
     7    29     4 1
     8    29    11 1
     9     3     2 ar
    10     3     5 ar
    11     2     1 ar
    12     4    19 1
    13     5     7 ar
    14    26    13 1
    15    26    12 1
    16     1    19 1
    17     1     6 ar
    18    19    12 1
    19    14    13 1
    20     7     6 ar
    21    11    10 1
    22    13    15 1
    23    12    16 1
    24    10     9 1
    25    16    15 1
    26    16    28 1
    27    15    27 1
    28    25     8 2
    29     9     8 1
    30     8    21 1
    31    21    20 1
    32     7    30 1
    33     9    31 1
    34     9    32 1
    35    10    33 1
    36    10    34 1
    37    11    35 1
    38    11    36 1
    39    12    37 1
    40    13    38 1
    41    14    39 1
    42    14    40 1
    43    15    41 1
    44    16    42 1
    45    17    43 1
    46    17    44 1
    47    20    45 1
    48    20    46 1
    49    21    47 1
    50    24    48 1
    51    27    49 1
    52    28    50 1
    53    51    20 1
@<TRIPOS>SUBSTRUCTURE
     1 DTW         1 TEMP              0 ****  ****    0 ROOT
