@<TRIPOS>MOLECULE
DTX
   61    65     1     0     0
SMALL
bcc


@<TRIPOS>ATOM
      1 O23        -0.1650   -0.2230    0.0780 o         1 DTX     -0.564500
      2 C23         1.0520   -0.2170    0.1960 c         1 DTX      0.706800
      3 C22         1.9830   -0.0290    1.3340 ce        1 DTX     -0.254200
      4 O21         1.7950   -0.4280   -0.9650 os        1 DTX     -0.420900
      5 C21         3.2030   -0.3890   -0.6220 c3        1 DTX      0.134600
      6 C20         3.2520   -0.1220    0.8690 c2        1 DTX     -0.061400
      7 C17         4.4960   -0.0100    1.6580 c3        1 DTX     -0.019500
      8 C16         5.5270   -1.0920    1.3080 c3        1 DTX     -0.072400
      9 C13         5.2330    1.3520    1.5000 c3        1 DTX     -0.021000
     10 C12         5.8240    1.6970    2.8690 c3        1 DTX     -0.074400
     11 C11         6.9030    2.7530    2.8110 c3        1 DTX     -0.077400
     12 C18         4.3140    2.4640    1.0410 c3        1 DTX     -0.082100
     13 C14         6.3680    1.0650    0.4710 c3        1 DTX      0.161800
     14 C15         6.7500   -0.4060    0.7180 c3        1 DTX     -0.106400
     15 O14         5.7620    1.1930   -0.8210 oh        1 DTX     -0.607800
     16 C8          7.5550    2.0460    0.5310 c3        1 DTX     -0.078700
     17 C7          8.6740    1.5900   -0.3930 c3        1 DTX     -0.076400
     18 C9          8.0660    2.2750    1.9550 c3        1 DTX     -0.042700
     19 C10         9.2660    3.2360    2.0000 c3        1 DTX     -0.033000
     20 C1          9.8540    3.3530    3.4130 c3        1 DTX     -0.073400
     21 C19         8.8520    4.6470    1.5860 c3        1 DTX     -0.090100
     22 C5         10.3800    2.7400    1.0580 c3        1 DTX     -0.052700
     23 C6          9.8560    2.5320   -0.3520 c3        1 DTX     -0.073400
     24 C4         11.0600    1.4740    1.5580 c3        1 DTX     -0.108400
     25 C3         11.6090    1.6190    2.9710 c3        1 DTX      0.142100
     26 C2         10.5180    2.0960    3.9220 c3        1 DTX     -0.070400
     27 O32        12.6730    2.5620    3.0450 oh        1 DTX     -0.598800
     28 H22         1.6240    0.1520    2.3460 ha        1 DTX      0.175000
     29 H211        3.6310   -1.3840   -0.8980 h1        1 DTX      0.092200
     30 H212        3.6750    0.4320   -1.2200 h1        1 DTX      0.092200
     31 H17         4.2020   -0.1270    2.7410 hc        1 DTX      0.063700
     32 H161        5.1030   -1.8340    0.5860 hc        1 DTX      0.048700
     33 H162        5.8080   -1.6550    2.2340 hc        1 DTX      0.048700
     34 H121        4.9950    2.0490    3.5380 hc        1 DTX      0.044200
     35 H122        6.2560    0.7650    3.3250 hc        1 DTX      0.044200
     36 H111        6.4870    3.7080    2.3950 hc        1 DTX      0.049200
     37 H112        7.2490    2.9640    3.8560 hc        1 DTX      0.049200
     38 H181        3.4800    2.6010    1.7710 hc        1 DTX      0.045367
     39 H182        4.8850    3.4210    0.9580 hc        1 DTX      0.045367
     40 H183        3.8790    2.2330    0.0380 hc        1 DTX      0.045367
     41 H151        7.0640   -0.8960   -0.2370 hc        1 DTX      0.051200
     42 H152        7.6100   -0.4590    1.4310 hc        1 DTX      0.051200
     43 H14O        6.4100    0.8960   -1.4700 ho        1 DTX      0.402000
     44 HC8         7.1570    3.0280    0.1400 hc        1 DTX      0.068700
     45 HC71        8.2960    1.5410   -1.4490 hc        1 DTX      0.037200
     46 HC72        9.0040    0.5560   -0.1090 hc        1 DTX      0.037200
     47 HC9         8.4200    1.2860    2.3650 hc        1 DTX      0.048700
     48 HC11        9.0570    3.6710    4.1330 hc        1 DTX      0.050200
     49 HC12       10.6290    4.1690    3.3940 hc        1 DTX      0.050200
     50 H191        8.3160    4.6440    0.6080 hc        1 DTX      0.037033
     51 H192        8.1800    5.0920    2.3580 hc        1 DTX      0.037033
     52 H193        9.7540    5.2990    1.4900 hc        1 DTX      0.037033
     53 HC5        11.1700    3.5470    1.0280 hc        1 DTX      0.057700
     54 HC61        9.5590    3.5250   -0.7830 hc        1 DTX      0.043200
     55 HC62       10.6770    2.1210   -0.9970 hc        1 DTX      0.043200
     56 HC41       11.8980    1.2140    0.8580 hc        1 DTX      0.044200
     57 HC42       10.3360    0.6180    1.5500 hc        1 DTX      0.044200
     58 HC3        12.0020    0.6190    3.3160 h1        1 DTX      0.029700
     59 HC21       10.9750    2.3020    4.9260 hc        1 DTX      0.049700
     60 HC22        9.7700    1.2710    4.0450 hc        1 DTX      0.049700
     61 H32O       13.2860    2.3490    2.3320 ho        1 DTX      0.398000
@<TRIPOS>BOND
     1    1    2 2   
     2    2    3 1   
     3    2    4 1   
     4    3    6 2   
     5    3   28 1   
     6    4    5 1   
     7    5    6 1   
     8    5   29 1   
     9    5   30 1   
    10    6    7 1   
    11    7    8 1   
    12    7    9 1   
    13    7   31 1   
    14    8   14 1   
    15    8   32 1   
    16    8   33 1   
    17    9   10 1   
    18    9   12 1   
    19    9   13 1   
    20   10   11 1   
    21   10   34 1   
    22   10   35 1   
    23   11   18 1   
    24   11   36 1   
    25   11   37 1   
    26   12   38 1   
    27   12   39 1   
    28   12   40 1   
    29   13   14 1   
    30   13   15 1   
    31   13   16 1   
    32   14   41 1   
    33   14   42 1   
    34   15   43 1   
    35   16   17 1   
    36   16   18 1   
    37   16   44 1   
    38   17   23 1   
    39   17   45 1   
    40   17   46 1   
    41   18   19 1   
    42   18   47 1   
    43   19   20 1   
    44   19   21 1   
    45   19   22 1   
    46   20   26 1   
    47   20   48 1   
    48   20   49 1   
    49   21   50 1   
    50   21   51 1   
    51   21   52 1   
    52   22   23 1   
    53   22   24 1   
    54   22   53 1   
    55   23   54 1   
    56   23   55 1   
    57   24   25 1   
    58   24   56 1   
    59   24   57 1   
    60   25   26 1   
    61   25   27 1   
    62   25   58 1   
    63   26   59 1   
    64   26   60 1   
    65   27   61 1   
@<TRIPOS>SUBSTRUCTURE
     1 DTX         1 TEMP              0 ****  ****    0 ROOT
