@<TRIPOS>MOLECULE
molecule
   61    65     1     0     0
SMALL
bcc


@<TRIPOS>ATOM
      1 O23          0.0000     0.0000     0.0000 o          1 DTX      -0.574500
      2 C23          1.2150     0.0000     0.0000 c          1 DTX       0.715800
      3 C22          2.0560     0.0000     1.1990 ce         1 DTX      -0.277200
      4 O21          1.9870     0.0020    -1.1020 os         1 DTX      -0.392900
      5 C21          3.3760     0.0090    -0.6660 c3         1 DTX       0.143600
      6 C20          3.3380     0.0020     0.8440 c2         1 DTX      -0.082400
      7 C17          4.5260     0.0010     1.7700 c3         1 DTX      -0.013500
      8 C16          5.5080    -1.1160     1.3740 c3         1 DTX      -0.075400
      9 C13          5.3070     1.3350     1.6360 c3         1 DTX      -0.039000
     10 C12          5.9430     1.6120     3.0010 c3         1 DTX      -0.072400
     11 C11          7.0110     2.6950     2.8890 c3         1 DTX      -0.083400
     12 C18          4.3980     2.4830     1.1950 c3         1 DTX      -0.079100
     13 C14          6.3960     0.9910     0.6100 c3         1 DTX       0.165800
     14 C15          6.8300    -0.4210     0.9740 c3         1 DTX      -0.110400
     15 O14          5.7760     0.9720    -0.6770 oh         1 DTX      -0.617800
     16 C8           7.5320     1.9820     0.5710 c3         1 DTX      -0.084700
     17 C7           8.6280     1.5020    -0.3830 c3         1 DTX      -0.082400
     18 C9           8.1230     2.1930     1.9620 c3         1 DTX      -0.056700
     19 C10          9.2370     3.2390     1.8950 c3         1 DTX      -0.051000
     20 C1           9.8270     3.4450     3.2920 c3         1 DTX      -0.065400
     21 C19          8.6620     4.5620     1.3850 c3         1 DTX      -0.088100
     22 C5          10.3320     2.7570     0.9440 c3         1 DTX      -0.051700
     23 C6           9.7400     2.5500    -0.4510 c3         1 DTX      -0.076400
     24 C4          10.9100     1.4390     1.4540 c3         1 DTX      -0.086400
     25 C3          11.5020     1.6460     2.8490 c3         1 DTX       0.147100
     26 C2          10.4050     2.1250     3.8020 c3         1 DTX      -0.093400
     27 O32         12.5390     2.6270     2.7860 oh         1 DTX      -0.603800
     28 H22          1.7380     0.5390     2.0840 ha         1 DTX       0.168000
     29 H211         3.8840    -0.8760    -1.0290 h1         1 DTX       0.095700
     30 H212         3.8720     0.9040    -1.0210 h1         1 DTX       0.095700
     31 H17          4.2050    -0.1370     2.7950 hc         1 DTX       0.071700
     32 H161         5.6770    -1.7760     2.2170 hc         1 DTX       0.051700
     33 H162         5.1140    -1.6730     0.5330 hc         1 DTX       0.051700
     34 H121         6.3970     0.7020     3.3730 hc         1 DTX       0.046200
     35 H122         5.1750     1.9410     3.6900 hc         1 DTX       0.046200
     36 H111         7.4220     2.9010     3.8700 hc         1 DTX       0.052200
     37 H112         6.5730     3.5950     2.4760 hc         1 DTX       0.052200
     38 H181         4.8690     3.4290     1.4340 hc         1 DTX       0.045367
     39 H182         4.2310     2.4220     0.1270 hc         1 DTX       0.045367
     40 H183         3.4490     2.4110     1.7130 hc         1 DTX       0.045367
     41 H151         7.2740    -0.9140     0.1180 hc         1 DTX       0.054700
     42 H152         7.5170    -0.4030     1.8120 hc         1 DTX       0.054700
     43 H14O         6.3550     0.5630    -1.2990 ho         1 DTX       0.405000
     44 HC8          7.1500     2.9300     0.2110 hc         1 DTX       0.073700
     45 HC71         9.0370     0.5670    -0.0200 hc         1 DTX       0.039200
     46 HC72         8.2070     1.3590    -1.3710 hc         1 DTX       0.039200
     47 HC9          8.5190     1.2570     2.3380 hc         1 DTX       0.056700
     48 HC11         9.0480     3.7810     3.9650 hc         1 DTX       0.051700
     49 HC12        10.6150     4.1870     3.2430 hc         1 DTX       0.051700
     50 H191         7.9260     4.9320     2.0890 hc         1 DTX       0.038033
     51 H192         8.1930     4.4050     0.4210 hc         1 DTX       0.038033
     52 H193         9.4610     5.2880     1.2840 hc         1 DTX       0.038033
     53 HC5         11.1190     3.5000     0.8940 hc         1 DTX       0.072700
     54 HC61         9.3300     3.4870    -0.8100 hc         1 DTX       0.046200
     55 HC62        10.5160     2.2080    -1.1240 hc         1 DTX       0.046200
     56 HC41        10.1220     0.6960     1.5040 hc         1 DTX       0.047700
     57 HC42        11.6880     1.1020     0.7800 hc         1 DTX       0.047700
     58 HC3         11.9070     0.7090     3.2100 h1         1 DTX       0.027700
     59 HC21         9.6190     1.3810     3.8480 hc         1 DTX       0.045200
     60 HC22        10.8260     2.2740     4.7890 hc         1 DTX       0.045200
     61 H32O        13.3410     2.2580     3.1160 ho         1 DTX       0.399000
@<TRIPOS>BOND
     1     1     2 2
     2     2     3 1
     3     2     4 1
     4     3     6 2
     5     3    28 1
     6     4     5 1
     7     5     6 1
     8     5    29 1
     9     5    30 1
    10     6     7 1
    11     7     8 1
    12     7     9 1
    13     7    31 1
    14     8    14 1
    15     8    32 1
    16     8    33 1
    17     9    10 1
    18     9    12 1
    19     9    13 1
    20    10    11 1
    21    10    34 1
    22    10    35 1
    23    11    18 1
    24    11    36 1
    25    11    37 1
    26    12    38 1
    27    12    39 1
    28    12    40 1
    29    13    14 1
    30    13    15 1
    31    13    16 1
    32    14    41 1
    33    14    42 1
    34    15    43 1
    35    16    17 1
    36    16    18 1
    37    16    44 1
    38    17    23 1
    39    17    45 1
    40    17    46 1
    41    18    19 1
    42    18    47 1
    43    19    20 1
    44    19    21 1
    45    19    22 1
    46    20    26 1
    47    20    48 1
    48    20    49 1
    49    21    50 1
    50    21    51 1
    51    21    52 1
    52    22    23 1
    53    22    24 1
    54    22    53 1
    55    23    54 1
    56    23    55 1
    57    24    25 1
    58    24    56 1
    59    24    57 1
    60    25    26 1
    61    25    27 1
    62    25    58 1
    63    26    59 1
    64    26    60 1
    65    27    61 1
@<TRIPOS>SUBSTRUCTURE
     1 DTX         1 TEMP              0 ****  ****    0 ROOT
