@<TRIPOS>MOLECULE
DU1
   66    69     1     0     0
SMALL
bcc


@<TRIPOS>ATOM
      1 O4           0.0000     0.0000     0.0000 o          1 DU1      -0.708500
      2 C3           1.2160     0.0000     0.0000 c          1 DU1       0.601500
      3 N1           1.8720     0.0000     1.1760 n          1 DU1      -0.005300
      4 C14          3.2570     0.0010     1.1980 cc         1 DU1       0.324200
      5 C22          3.9470     0.0020    -0.0070 cd         1 DU1      -0.568200
      6 N4           5.2890     0.0020     0.3160 na         1 DU1       0.352100
      7 C15          5.3700     0.0020     1.6610 cd         1 DU1       0.231800
      8 C16          6.6530     0.0020     2.4520 c3         1 DU1      -0.061000
      9 C21          7.1530     1.4390     2.6140 c3         1 DU1      -0.028900
     10 C20          8.4550     1.4390     3.4180 c3         1 DU1      -0.020400
     11 C19          9.5100     0.6110     2.6800 c3         1 DU1      -0.028400
     12 C18          9.0100    -0.8250     2.5190 c3         1 DU1      -0.020400
     13 C17          7.7080    -0.8260     1.7160 c3         1 DU1      -0.028900
     14 N3           4.1680     0.0010     2.1760 nc         1 DU1      -0.624000
     15 C23          3.2200     0.0010    -1.2170 c          1 DU1       0.684100
     16 O3           3.8020    -0.0040    -2.2860 o          1 DU1      -0.680500
     17 N            1.8710    -0.0050    -1.1740 n          1 DU1      -0.080400
     18 C2           1.1090    -0.0060    -2.4250 c3         1 DU1       0.036000
     19 C1           0.8510    -1.4490    -2.8630 c3         1 DU1      -0.046400
     20 C            0.0540    -1.4500    -4.1700 c3         1 DU1       0.013900
     21 C4           1.1200     0.0010     2.4330 c3         1 DU1       0.038000
     22 C5           0.8580    -1.4410     2.8710 c3         1 DU1      -0.064400
     23 C6           0.0730    -1.4410     4.1840 c3         1 DU1       0.056000
     24 N2          -0.1780    -2.8230     4.6030 ns         1 DU1      -0.191900
     25 C7          -0.8580    -3.0690     5.7410 c          1 DU1       0.584700
     26 O2          -1.2630    -2.1450     6.4190 o          1 DU1      -0.639100
     27 C8          -1.1110    -4.4630     6.1640 ca         1 DU1      -0.094600
     28 C13         -0.6410    -5.5260     5.3900 ca         1 DU1      -0.085000
     29 C12         -0.8810    -6.8250     5.7910 ca         1 DU1      -0.001000
     30 C11         -1.5850    -7.0740     6.9560 ca         1 DU1      -0.150500
     31 S           -1.8860    -8.7350     7.4600 sy         1 DU1       1.191000
     32 O1          -2.2610    -9.4470     6.2900 o          1 DU1      -0.575300
     33 O           -0.7870    -9.1100     8.2800 o          1 DU1      -0.575300
     34 C10         -2.0520    -6.0240     7.7270 ca         1 DU1      -0.001000
     35 C9          -1.8150    -4.7220     7.3400 ca         1 DU1      -0.085000
     36 H1           6.0480     0.1540    -0.3190 hn         1 DU1       0.136700
     37 H2           6.4790    -0.4300     3.4310 hc         1 DU1       0.057700
     38 H3           7.3340     1.8690     1.6360 hc         1 DU1       0.016950
     39 H4           6.4060     2.0230     3.1390 hc         1 DU1       0.016950
     40 H5           8.8090     2.4560     3.5300 hc         1 DU1       0.018700
     41 H6           8.2750     1.0040     4.3940 hc         1 DU1       0.018700
     42 H7           9.6850     1.0430     1.7020 hc         1 DU1       0.016200
     43 H8          10.4310     0.6100     3.2500 hc         1 DU1       0.016200
     44 H9           9.7570    -1.4090     1.9950 hc         1 DU1       0.018700
     45 H10          8.8300    -1.2550     3.4970 hc         1 DU1       0.018700
     46 H11          7.3540    -1.8440     1.6050 hc         1 DU1       0.016950
     47 H12          7.8880    -0.3920     0.7390 hc         1 DU1       0.016950
     48 H14          1.6750     0.5090    -3.1920 h1         1 DU1       0.050700
     49 H15          0.1640     0.5010    -2.2720 h1         1 DU1       0.050700
     50 H16          1.7960    -1.9550    -3.0160 hc         1 DU1       0.022700
     51 H17          0.2850    -1.9630    -2.0950 hc         1 DU1       0.022700
     52 H18          0.6270    -0.9500    -4.9420 hc         1 DU1       0.003367
     53 H19         -0.1430    -2.4720    -4.4710 hc         1 DU1       0.003367
     54 H20         -0.8840    -0.9290    -4.0210 hc         1 DU1       0.003367
     55 H21          0.1760     0.5120     2.2890 h1         1 DU1       0.051200
     56 H22          1.6940     0.5120     3.1970 h1         1 DU1       0.051200
     57 H23          1.8020    -1.9520     3.0150 hc         1 DU1       0.028200
     58 H24          0.2840    -1.9520     2.1070 hc         1 DU1       0.028200
     59 H25          0.6480    -0.9310     4.9480 h1         1 DU1       0.031200
     60 H26         -0.8710    -0.9300     4.0410 h1         1 DU1       0.031200
     61 H27          0.1220    -3.5840     4.0250 hn         1 DU1       0.179500
     62 H28         -0.0900    -5.3320     4.4780 ha         1 DU1       0.123000
     63 H29         -0.5170    -7.6510     5.1920 ha         1 DU1       0.115000
     64 H32         -2.6000    -6.2260     8.6390 ha         1 DU1       0.115000
     65 H33         -2.1810    -3.9010     7.9450 ha         1 DU1       0.123000
     66 F1          -3.1810    -8.7150     8.4170 f          1 DU1      -0.152900
@<TRIPOS>BOND
     1     1     2 2   
     2     2     3 1   
     3     2    17 1   
     4     3     4 1   
     5     3    21 1   
     6     4     5 2   
     7     4    14 1   
     8     5     6 1   
     9     5    15 1   
    10     6     7 1   
    11     6    36 1   
    12     7     8 1   
    13     7    14 2   
    14     8     9 1   
    15     8    13 1   
    16     8    37 1   
    17     9    10 1   
    18     9    38 1   
    19     9    39 1   
    20    10    11 1   
    21    10    40 1   
    22    10    41 1   
    23    11    12 1   
    24    11    42 1   
    25    11    43 1   
    26    12    13 1   
    27    12    44 1   
    28    12    45 1   
    29    13    46 1   
    30    13    47 1   
    31    15    16 2   
    32    15    17 1   
    33    17    18 1   
    34    18    19 1   
    35    18    48 1   
    36    18    49 1   
    37    19    20 1   
    38    19    50 1   
    39    19    51 1   
    40    20    52 1   
    41    20    53 1   
    42    20    54 1   
    43    21    22 1   
    44    21    55 1   
    45    21    56 1   
    46    22    23 1   
    47    22    57 1   
    48    22    58 1   
    49    23    24 1   
    50    23    59 1   
    51    23    60 1   
    52    24    25 1   
    53    24    61 1   
    54    25    26 2   
    55    25    27 1   
    56    27    28 ar  
    57    27    35 ar  
    58    28    29 ar  
    59    28    62 1   
    60    29    30 ar  
    61    29    63 1   
    62    30    31 1   
    63    30    34 ar  
    64    31    32 2   
    65    31    33 2   
    66    31    66 1   
    67    34    35 ar  
    68    34    64 1   
    69    35    65 1   
@<TRIPOS>SUBSTRUCTURE
     1 DU1         1 TEMP              0 ****  ****    0 ROOT
