@<TRIPOS>MOLECULE
molecule
   52    55     1     0     0
SMALL
bcc


@<TRIPOS>ATOM
      1 N1           0.0000     0.0000     0.0000 n          1 DU2      -0.365000
      2 C2           1.3460     0.0000     0.0000 c          1 DU2       0.816500
      3 O2           1.9450    -0.0000    -1.0580 o          1 DU2      -0.656500
      4 N3           2.0370     0.0000     1.1540 ns         1 DU2      -0.560500
      5 C4           1.3870     0.0010     2.3370 c          1 DU2       0.705700
      6 O4           2.0120     0.0020     3.3810 o          1 DU2      -0.619500
      7 C5          -0.0280     0.0010     2.3500 cc         1 DU2      -0.331200
      8 C6          -0.6980     0.0000     1.1780 cd         1 DU2       0.051600
      9 C1'         -0.7250     0.0050    -1.2720 c3         1 DU2       0.304500
     10 C17         -5.1080     3.6150    -1.9100 c3         1 DU2       0.213500
     11 C18         -5.2520     4.7150    -2.9310 ca         1 DU2      -0.104300
     12 C19         -6.5050     5.0630    -3.4000 ca         1 DU2      -0.105500
     13 C2'         -1.5170    -1.3080    -1.4310 c3         1 DU2      -0.157400
     14 C20         -6.6370     6.0710    -4.3350 ca         1 DU2      -0.132500
     15 C21         -5.5170     6.7320    -4.8020 ca         1 DU2      -0.120000
     16 C22         -4.2640     6.3850    -4.3330 ca         1 DU2      -0.132500
     17 C23         -4.1320     5.3800    -3.3940 ca         1 DU2      -0.105500
     18 C24         -4.9400     4.2200    -0.5400 cc         1 DU2       0.401800
     19 N25         -3.8560     4.7900    -0.0880 nd         1 DU2      -0.657000
     20 C26         -4.0690     5.2120     1.1680 cd         1 DU2       0.311200
     21 C27         -5.3320     4.8920     1.5050 cc         1 DU2      -0.280600
     22 N28         -5.8870     4.2680     0.4210 na         1 DU2      -0.187900
     23 C29         -7.2520     3.7460     0.3220 c3         1 DU2       0.030600
     24 C3'         -2.9870    -0.8480    -1.5870 c3         1 DU2       0.107100
     25 C4'         -2.8200     0.6240    -2.0420 c3         1 DU2       0.141100
     26 O4'         -1.6780     1.0830    -1.2890 os         1 DU2      -0.387600
     27 O41         -3.6580    -1.6180    -2.5860 oh         1 DU2      -0.591800
     28 C5'         -4.0630     1.4430    -1.6860 c3         1 DU2       0.162800
     29 N5'         -3.9300     2.7990    -2.2330 n7         1 DU2      -0.786200
     30 HN3          3.0370    -0.0000     1.1360 hn         1 DU2       0.363500
     31 H5          -0.5680     0.0010     3.2900 ha         1 DU2       0.177000
     32 H6          -1.7810     0.0000     1.1690 h4         1 DU2       0.166000
     33 H1'         -0.0320     0.1170    -2.0970 h2         1 DU2       0.115700
     34 H17         -5.9940     2.9920    -1.9230 h1         1 DU2       0.027700
     35 H19         -7.3840     4.5450    -3.0340 ha         1 DU2       0.142000
     36 H2'         -1.4060    -1.9250    -0.5470 hc         1 DU2       0.076700
     37 H2'A        -1.1920    -1.8400    -2.3170 hc         1 DU2       0.076700
     38 H20         -7.6190     6.3440    -4.7030 ha         1 DU2       0.132000
     39 H21         -5.6200     7.5210    -5.5370 ha         1 DU2       0.130000
     40 H22         -3.3860     6.9050    -4.6980 ha         1 DU2       0.132000
     41 H23         -3.1490     5.1080    -3.0260 ha         1 DU2       0.142000
     42 H26         -3.3500     5.7200     1.7990 h4         1 DU2       0.042100
     43 H27         -5.8180     5.0950     2.4520 h4         1 DU2       0.171000
     44 H29         -7.2700     2.9100    -0.3670 h1         1 DU2       0.051033
     45 H29A        -7.9120     4.5260    -0.0390 h1         1 DU2       0.051033
     46 H29B        -7.5850     3.4160     1.2990 h1         1 DU2       0.051033
     47 H3'         -3.5070    -0.8990    -0.6380 h1         1 DU2       0.047700
     48 H4'         -2.6170     0.6710    -3.1050 h1         1 DU2       0.073700
     49 HO41        -4.1800    -2.2850    -2.1710 ho         1 DU2       0.409000
     50 H5'         -4.1640     1.4960    -0.6090 h1         1 DU2       0.044700
     51 H5'A        -4.9410     0.9680    -2.1080 h1         1 DU2       0.044700
     52 HN5'        -3.8200     2.7490    -3.2260 hn         1 DU2       0.367800
@<TRIPOS>BOND
     1     1     2 1
     2     1     8 1
     3     1     9 1
     4     2     3 2
     5     2     4 1
     6     4     5 1
     7     5     6 2
     8     5     7 1
     9     7     8 2
    10     9    13 1
    11     9    26 1
    12    10    11 1
    13    10    18 1
    14    10    29 1
    15    11    12 ar
    16    11    17 ar
    17    12    14 ar
    18    13    24 1
    19    14    15 ar
    20    15    16 ar
    21    16    17 ar
    22    18    19 2
    23    18    22 1
    24    19    20 1
    25    20    21 2
    26    21    22 1
    27    22    23 1
    28    24    25 1
    29    24    27 1
    30    25    26 1
    31    25    28 1
    32    28    29 1
    33     4    30 1
    34     7    31 1
    35     8    32 1
    36     9    33 1
    37    10    34 1
    38    12    35 1
    39    13    36 1
    40    13    37 1
    41    14    38 1
    42    15    39 1
    43    16    40 1
    44    17    41 1
    45    20    42 1
    46    21    43 1
    47    23    44 1
    48    23    45 1
    49    23    46 1
    50    24    47 1
    51    25    48 1
    52    27    49 1
    53    28    50 1
    54    28    51 1
    55    29    52 1
@<TRIPOS>SUBSTRUCTURE
     1 DU2         1 TEMP              0 ****  ****    0 ROOT
