@<TRIPOS>MOLECULE
molecule
   52    55     1     0     0
SMALL
bcc


@<TRIPOS>ATOM
      1 N1           0.0000     0.0000     0.0000 n          1 DU3      -0.366000
      2 C2           1.3460     0.0000     0.0000 c          1 DU3       0.816500
      3 O2           1.9450     0.0000    -1.0570 o          1 DU3      -0.655500
      4 N3           2.0370     0.0000     1.1540 ns         1 DU3      -0.560500
      5 C4           1.3870     0.0000     2.3360 c          1 DU3       0.703700
      6 O4           2.0120     0.0010     3.3820 o          1 DU3      -0.619500
      7 C5          -0.0290     0.0000     2.3500 cc         1 DU3      -0.330200
      8 C6          -0.6970     0.0060     1.1770 cd         1 DU3       0.048600
      9 C1'         -0.7250    -0.0010    -1.2730 c3         1 DU3       0.305500
     10 C17         -5.1090     3.6050    -1.9340 c3         1 DU3       0.262100
     11 C18         -4.9460     4.2170    -0.5670 ca         1 DU3      -0.088800
     12 C19         -6.0270     4.2930     0.2910 ca         1 DU3      -0.111500
     13 C2'         -1.5170    -1.3140    -1.4250 c3         1 DU3      -0.157400
     14 C20         -5.8770     4.8540     1.5440 ca         1 DU3      -0.131000
     15 C21         -4.6460     5.3400     1.9410 ca         1 DU3      -0.125000
     16 C22         -3.5640     5.2640     1.0840 ca         1 DU3      -0.131000
     17 C23         -3.7120     4.6970    -0.1680 ca         1 DU3      -0.111500
     18 C24         -5.2520     4.7000    -2.9600 ca         1 DU3      -0.088800
     19 C25         -4.1310     5.3550    -3.4320 ca         1 DU3      -0.111500
     20 C26         -4.2610     6.3600    -4.3730 ca         1 DU3      -0.131000
     21 C27         -5.5130     6.7070    -4.8430 ca         1 DU3      -0.125000
     22 C28         -6.6350     6.0510    -4.3720 ca         1 DU3      -0.131000
     23 C29         -6.5050     5.0440    -3.4340 ca         1 DU3      -0.111500
     24 C3'         -2.9860    -0.8550    -1.5840 c3         1 DU3       0.109100
     25 O3'         -3.6580    -1.6290    -2.5800 oh         1 DU3      -0.591800
     26 C4'         -2.8200     0.6150    -2.0460 c3         1 DU3       0.139100
     27 O4'         -1.6760     1.0770    -1.2930 os         1 DU3      -0.398600
     28 C5'         -4.0650     1.4340    -1.6970 c3         1 DU3       0.163800
     29 N5'         -3.9300     2.7880    -2.2500 n7         1 DU3      -0.808200
     30 H5          -0.5680     0.0030     3.2890 ha         1 DU3       0.178000
     31 H6          -1.7800     0.0060     1.1680 h4         1 DU3       0.167000
     32 H1'         -0.0320     0.1070    -2.0990 h2         1 DU3       0.115700
     33 H17         -5.9950     2.9810    -1.9470 h1         1 DU3       0.035700
     34 H19         -6.9930     3.9120    -0.0200 ha         1 DU3       0.137250
     35 H2'         -1.1910    -1.8510    -2.3080 hc         1 DU3       0.076700
     36 H2'A        -1.4060    -1.9270    -0.5390 hc         1 DU3       0.076700
     37 H20         -6.7250     4.9130     2.2160 ha         1 DU3       0.130000
     38 H21         -4.5290     5.7820     2.9230 ha         1 DU3       0.129000
     39 H22         -2.5980     5.6420     1.3960 ha         1 DU3       0.130000
     40 H23         -2.8650     4.6370    -0.8400 ha         1 DU3       0.137250
     41 H25         -3.1490     5.0820    -3.0630 ha         1 DU3       0.137250
     42 H26         -3.3820     6.8730    -4.7420 ha         1 DU3       0.130000
     43 H27         -5.6160     7.4950    -5.5790 ha         1 DU3       0.129000
     44 H28         -7.6160     6.3220    -4.7420 ha         1 DU3       0.130000
     45 H29         -7.3840     4.5300    -3.0650 ha         1 DU3       0.137250
     46 H3'         -3.5060    -0.9010    -0.6340 h1         1 DU3       0.048700
     47 HO3'        -4.1820    -2.2920    -2.1620 ho         1 DU3       0.410000
     48 H4'         -2.6150     0.6560    -3.1090 h1         1 DU3       0.073700
     49 H5'         -4.1690     1.4920    -0.6200 h1         1 DU3       0.049200
     50 H5'A        -4.9410     0.9570    -2.1190 h1         1 DU3       0.049200
     51 HN5'        -3.8180     2.7340    -3.2430 hn         1 DU3       0.363800
     52 HN3          3.0380    -0.0000     1.1360 hn         1 DU3       0.364500
@<TRIPOS>BOND
     1     2     1 1
     2     8     1 1
     3     1     9 1
     4     4     2 1
     5     3     2 2
     6     5     4 1
     7     6     5 2
     8     5     7 1
     9     7     8 2
    10     7    30 1
    11     8    31 1
    12    27     9 1
    13     9    13 1
    14     9    32 1
    15    11    10 1
    16    18    10 1
    17    10    29 1
    18    10    33 1
    19    12    11 ar
    20    17    11 ar
    21    14    12 ar
    22    12    34 1
    23    24    13 1
    24    13    35 1
    25    13    36 1
    26    15    14 ar
    27    14    37 1
    28    15    16 ar
    29    15    38 1
    30    16    17 ar
    31    16    39 1
    32    17    40 1
    33    19    18 ar
    34    18    23 ar
    35    20    19 ar
    36    19    41 1
    37    20    21 ar
    38    20    42 1
    39    21    22 ar
    40    21    43 1
    41    22    23 ar
    42    22    44 1
    43    23    45 1
    44    26    24 1
    45    24    25 1
    46    24    46 1
    47    25    47 1
    48    28    26 1
    49    27    26 1
    50    26    48 1
    51    29    28 1
    52    28    49 1
    53    28    50 1
    54    29    51 1
    55     4    52 1
@<TRIPOS>SUBSTRUCTURE
     1 DU3         1 TEMP              0 ****  ****    0 ROOT
