@<TRIPOS>MOLECULE
DU3
   52    55     1     0     0
SMALL
bcc


@<TRIPOS>ATOM
      1 N1           0.0000     0.0000     0.0000 n          1 DU3       0.041000
      2 C2           1.3460     0.0000     0.0000 c          1 DU3       0.594500
      3 O2           1.9450     0.0000    -1.0570 o          1 DU3      -0.705500
      4 N3           2.0370     0.0000     1.1540 ns         1 DU3      -0.126500
      5 C4           1.3870     0.0000     2.3360 c          1 DU3       0.613700
      6 O4           2.0120     0.0010     3.3820 o          1 DU3      -0.655500
      7 C5          -0.0290     0.0000     2.3500 cc         1 DU3      -0.301200
      8 C6          -0.6970     0.0060     1.1770 cd         1 DU3      -0.076400
      9 C1'         -0.7250    -0.0010    -1.2730 c3         1 DU3       0.215500
     10 C17         -5.1090     3.6050    -1.9340 c3         1 DU3       0.238100
     11 C18         -4.9460     4.2170    -0.5670 ca         1 DU3      -0.099300
     12 C19         -6.0270     4.2930     0.2910 ca         1 DU3      -0.088250
     13 C2'         -1.5170    -1.3140    -1.4250 c3         1 DU3      -0.110400
     14 C20         -5.8770     4.8540     1.5440 ca         1 DU3      -0.102750
     15 C21         -4.6460     5.3400     1.9410 ca         1 DU3      -0.098500
     16 C22         -3.5640     5.2640     1.0840 ca         1 DU3      -0.102750
     17 C23         -3.7120     4.6970    -0.1680 ca         1 DU3      -0.088250
     18 C24         -5.2520     4.7000    -2.9600 ca         1 DU3      -0.099300
     19 C25         -4.1310     5.3550    -3.4320 ca         1 DU3      -0.088250
     20 C26         -4.2610     6.3600    -4.3730 ca         1 DU3      -0.102750
     21 C27         -5.5130     6.7070    -4.8430 ca         1 DU3      -0.098500
     22 C28         -6.6350     6.0510    -4.3720 ca         1 DU3      -0.102750
     23 C29         -6.5050     5.0440    -3.4340 ca         1 DU3      -0.088250
     24 C3'         -2.9860    -0.8550    -1.5840 c3         1 DU3       0.156100
     25 O3'         -3.6580    -1.6290    -2.5800 oh         1 DU3      -0.570800
     26 C4'         -2.8200     0.6150    -2.0460 c3         1 DU3       0.174100
     27 O4'         -1.6760     1.0770    -1.2930 os         1 DU3      -0.387600
     28 C5'         -4.0650     1.4340    -1.6970 c3         1 DU3       0.137800
     29 N5'         -3.9300     2.7880    -2.2500 n7         1 DU3      -0.576200
     30 H5          -0.5680     0.0030     3.2890 ha         1 DU3       0.150000
     31 H6          -1.7800     0.0060     1.1680 h4         1 DU3       0.137000
     32 H1'         -0.0320     0.1070    -2.0990 h2         1 DU3       0.079700
     33 H17         -5.9950     2.9810    -1.9470 h1         1 DU3       0.015700
     34 H19         -6.9930     3.9120    -0.0200 ha         1 DU3       0.112000
     35 H2'         -1.1910    -1.8510    -2.3080 hc         1 DU3       0.044200
     36 H2'A        -1.4060    -1.9270    -0.5390 hc         1 DU3       0.044200
     37 H20         -6.7250     4.9130     2.2160 ha         1 DU3       0.102750
     38 H21         -4.5290     5.7820     2.9230 ha         1 DU3       0.101500
     39 H22         -2.5980     5.6420     1.3960 ha         1 DU3       0.102750
     40 H23         -2.8650     4.6370    -0.8400 ha         1 DU3       0.112000
     41 H25         -3.1490     5.0820    -3.0630 ha         1 DU3       0.112000
     42 H26         -3.3820     6.8730    -4.7420 ha         1 DU3       0.102750
     43 H27         -5.6160     7.4950    -5.5790 ha         1 DU3       0.101500
     44 H28         -7.6160     6.3220    -4.7420 ha         1 DU3       0.102750
     45 H29         -7.3840     4.5300    -3.0650 ha         1 DU3       0.112000
     46 H3'         -3.5060    -0.9010    -0.6340 h1         1 DU3       0.015700
     47 HO3'        -4.1820    -2.2920    -2.1620 ho         1 DU3       0.396000
     48 H4'         -2.6150     0.6560    -3.1090 h1         1 DU3       0.039700
     49 H5'         -4.1690     1.4920    -0.6200 h1         1 DU3       0.021200
     50 H5'A        -4.9410     0.9570    -2.1190 h1         1 DU3       0.021200
     51 HN5'        -3.8180     2.7340    -3.2430 hn         1 DU3       0.264800
     52 HN3          3.0380    -0.0000     1.1360 hn         1 DU3       0.207500
@<TRIPOS>BOND
     1     1     2 1   
     2     1     8 1   
     3     1     9 1   
     4     2     3 2   
     5     2     4 1   
     6     4     5 1   
     7     4    52 1   
     8     5     6 2   
     9     5     7 1   
    10     7     8 2   
    11     7    30 1   
    12     8    31 1   
    13     9    13 1   
    14     9    27 1   
    15     9    32 1   
    16    10    11 1   
    17    10    18 1   
    18    10    29 1   
    19    10    33 1   
    20    11    12 ar  
    21    11    17 ar  
    22    12    14 ar  
    23    12    34 1   
    24    13    24 1   
    25    13    35 1   
    26    13    36 1   
    27    14    15 ar  
    28    14    37 1   
    29    15    16 ar  
    30    15    38 1   
    31    16    17 ar  
    32    16    39 1   
    33    17    40 1   
    34    18    19 ar  
    35    18    23 ar  
    36    19    20 ar  
    37    19    41 1   
    38    20    21 ar  
    39    20    42 1   
    40    21    22 ar  
    41    21    43 1   
    42    22    23 ar  
    43    22    44 1   
    44    23    45 1   
    45    24    25 1   
    46    24    26 1   
    47    24    46 1   
    48    25    47 1   
    49    26    27 1   
    50    26    28 1   
    51    26    48 1   
    52    28    29 1   
    53    28    49 1   
    54    28    50 1   
    55    29    51 1   
@<TRIPOS>SUBSTRUCTURE
     1 DU3         1 TEMP              0 ****  ****    0 ROOT
