@<TRIPOS>MOLECULE
DU4
   55    58     1     0     0
SMALL
bcc


@<TRIPOS>ATOM
      1 N1           0.0000     0.0000     0.0000 n          1 DU4       0.041000
      2 C2           1.3450     0.0000     0.0000 c          1 DU4       0.594500
      3 O2           1.9450    -0.0000    -1.0570 o          1 DU4      -0.705500
      4 N3           2.0370     0.0000     1.1550 ns         1 DU4      -0.128500
      5 C4           1.3870    -0.0000     2.3370 c          1 DU4       0.614700
      6 O4           2.0120     0.0010     3.3810 o          1 DU4      -0.655500
      7 C5          -0.0290    -0.0000     2.3510 cc         1 DU4      -0.302200
      8 C6          -0.6980     0.0000     1.1780 cd         1 DU4      -0.077400
      9 C1'         -0.7250     0.0060    -1.2730 c3         1 DU4       0.215500
     10 C17         -4.9830     3.6840    -1.7150 c3         1 DU4       0.249100
     11 C18         -4.9110     3.7250    -0.2110 ca         1 DU4      -0.096800
     12 C19         -6.0680     3.6260     0.5400 ca         1 DU4      -0.089250
     13 C2'         -1.5170    -1.3060    -1.4310 c3         1 DU4      -0.110400
     14 C20         -6.0010     3.6640     1.9200 ca         1 DU4      -0.104000
     15 C21         -4.7790     3.7990     2.5500 ca         1 DU4      -0.099000
     16 C22         -3.6220     3.8980     1.8000 ca         1 DU4      -0.104000
     17 C23         -3.6870     3.8550     0.4200 ca         1 DU4      -0.089250
     18 C24         -4.7900     5.0730    -2.2650 ca         1 DU4      -0.096800
     19 C25         -5.8690     5.7700    -2.7780 ca         1 DU4      -0.089250
     20 C26         -5.6920     7.0450    -3.2820 ca         1 DU4      -0.104000
     21 C27         -4.4370     7.6230    -3.2740 ca         1 DU4      -0.099000
     22 C28         -3.3580     6.9270    -2.7610 ca         1 DU4      -0.104000
     23 C29         -3.5350     5.6540    -2.2530 ca         1 DU4      -0.089250
     24 C3'         -2.9880    -0.8460    -1.5880 c3         1 DU4       0.155100
     25 O3'         -3.6590    -1.6160    -2.5870 oh         1 DU4      -0.570800
     26 C4'         -2.8190     0.6260    -2.0430 c3         1 DU4       0.171100
     27 O4'         -1.6770     1.0830    -1.2880 os         1 DU4      -0.389600
     28 C41         -3.9330     2.7810    -3.7010 c3         1 DU4       0.158100
     29 C5'         -4.0620     1.4440    -1.6860 c3         1 DU4       0.135800
     30 N5'         -3.9290     2.8020    -2.2320 n3         1 DU4      -0.529600
     31 HN3          3.0380     0.0000     1.1360 hn         1 DU4       0.207500
     32 H5          -0.5680    -0.0000     3.2900 ha         1 DU4       0.150000
     33 H6          -1.7810     0.0010     1.1690 h4         1 DU4       0.137000
     34 H1'         -0.0320     0.1180    -2.0970 h2         1 DU4       0.079700
     35 H17         -5.9520     3.3060    -2.0200 h1         1 DU4       0.013700
     36 H19         -7.0260     3.5190     0.0460 ha         1 DU4       0.114250
     37 H2'         -1.4070    -1.9230    -0.5470 hc         1 DU4       0.044200
     38 H2'A        -1.1920    -1.8390    -2.3160 hc         1 DU4       0.044200
     39 H20         -6.9080     3.5860     2.5080 ha         1 DU4       0.103500
     40 H21         -4.7280     3.8310     3.6320 ha         1 DU4       0.102500
     41 H22         -2.6630     4.0020     2.2940 ha         1 DU4       0.103500
     42 H23         -2.7800     3.9320    -0.1680 ha         1 DU4       0.114250
     43 H25         -6.8530     5.3170    -2.7850 ha         1 DU4       0.114250
     44 H26         -6.5370     7.5910    -3.6840 ha         1 DU4       0.103500
     45 H27         -4.2980     8.6210    -3.6710 ha         1 DU4       0.102500
     46 H28         -2.3740     7.3810    -2.7530 ha         1 DU4       0.103500
     47 H29         -2.6900     5.1090    -1.8510 ha         1 DU4       0.114250
     48 H3'         -3.5080    -0.8970    -0.6390 h1         1 DU4       0.015700
     49 HO3'        -4.1770    -2.2850    -2.1730 ho         1 DU4       0.395000
     50 H4'         -2.6160     0.6740    -3.1050 h1         1 DU4       0.046700
     51 H41         -4.3350     1.8370    -4.0470 h1         1 DU4       0.012033
     52 H41A        -2.9200     2.8980    -4.0660 h1         1 DU4       0.012033
     53 H41B        -4.5470     3.5930    -4.0710 h1         1 DU4       0.012033
     54 H5'         -4.9400     0.9700    -2.1070 h1         1 DU4       0.027700
     55 H5'A        -4.1630     1.4970    -0.6080 h1         1 DU4       0.027700
@<TRIPOS>BOND
     1     1     2 1   
     2     1     8 1   
     3     1     9 1   
     4     2     3 2   
     5     2     4 1   
     6     4     5 1   
     7     4    31 1   
     8     5     6 2   
     9     5     7 1   
    10     7     8 2   
    11     7    32 1   
    12     8    33 1   
    13     9    13 1   
    14     9    27 1   
    15     9    34 1   
    16    10    11 1   
    17    10    18 1   
    18    10    30 1   
    19    10    35 1   
    20    11    12 ar  
    21    11    17 ar  
    22    12    14 ar  
    23    12    36 1   
    24    13    24 1   
    25    13    37 1   
    26    13    38 1   
    27    14    15 ar  
    28    14    39 1   
    29    15    16 ar  
    30    15    40 1   
    31    16    17 ar  
    32    16    41 1   
    33    17    42 1   
    34    18    19 ar  
    35    18    23 ar  
    36    19    20 ar  
    37    19    43 1   
    38    20    21 ar  
    39    20    44 1   
    40    21    22 ar  
    41    21    45 1   
    42    22    23 ar  
    43    22    46 1   
    44    23    47 1   
    45    24    25 1   
    46    24    26 1   
    47    24    48 1   
    48    25    49 1   
    49    26    27 1   
    50    26    29 1   
    51    26    50 1   
    52    28    30 1   
    53    28    51 1   
    54    28    52 1   
    55    28    53 1   
    56    29    30 1   
    57    29    54 1   
    58    29    55 1   
@<TRIPOS>SUBSTRUCTURE
     1 DU4         1 TEMP              0 ****  ****    0 ROOT
