@<TRIPOS>MOLECULE
DU7
   15    15     1     0     0
SMALL
bcc


@<TRIPOS>ATOM
      1 C4           0.0000     0.0000     0.0000 ca         1 DU7       0.724900
      2 C3           2.0000     0.0000     1.1390 ca         1 DU7       0.439300
      3 C2           1.3040    -0.0000     2.3390 ca         1 DU7      -0.344600
      4 C1          -0.0810    -0.0050     2.3000 ca         1 DU7       0.425600
      5 Cl           3.7360     0.0010     1.1300 cl         1 DU7      -0.075000
      6 N            1.3240     0.0000     0.0000 nb         1 DU7      -0.620000
      7 N1          -0.6750    -0.0020    -1.2090 nv         1 DU7      -0.637500
      8 N2          -0.6950    -0.0060     1.1290 nb         1 DU7      -0.625000
      9 C           -0.8800    -0.0120     3.5790 c3         1 DU7      -0.043400
     10 H3           1.8310     0.0010     3.2850 ha         1 DU7       0.134000
     11 H5          -0.9160    -0.8690    -1.6460 hn         1 DU7       0.281800
     12 H4          -0.9220     0.8640    -1.6460 hn         1 DU7       0.281800
     13 H2          -1.9370    -0.0150     3.3440 hc         1 DU7       0.019033
     14 H1          -0.6350    -0.8970     4.1530 hc         1 DU7       0.019033
     15 H           -0.6410     0.8720     4.1580 hc         1 DU7       0.019033
@<TRIPOS>BOND
     1     1     6 ar  
     2     1     7 1   
     3     1     8 ar  
     4     2     3 ar  
     5     2     5 1   
     6     2     6 ar  
     7     3     4 ar  
     8     3    10 1   
     9     4     8 ar  
    10     4     9 1   
    11     7    11 1   
    12     7    12 1   
    13     9    13 1   
    14     9    14 1   
    15     9    15 1   
@<TRIPOS>SUBSTRUCTURE
     1 DU7         1 TEMP              0 ****  ****    0 ROOT
