@<TRIPOS>MOLECULE
DUA
   62    66     1     0     0
SMALL
bcc


@<TRIPOS>ATOM
      1 N1           0.0000     0.0000     0.0000 n          1 DUA       0.042000
      2 O1          -3.6590    -1.6280    -2.5790 oh         1 DUA      -0.571800
      3 C2           1.3450     0.0000     0.0000 c          1 DUA       0.594500
      4 N2          -3.9300     2.7900    -2.2440 n7         1 DUA      -0.570200
      5 O2           1.9450     0.0010    -1.0570 o          1 DUA      -0.706500
      6 N3           2.0370     0.0000     1.1540 ns         1 DUA      -0.127500
      7 C4           1.3880    -0.0010     2.3360 c          1 DUA       0.613700
      8 O4           2.0120     0.0000     3.3810 o          1 DUA      -0.655500
      9 C5          -0.0280    -0.0000     2.3500 cc         1 DUA      -0.301200
     10 C6          -0.6970     0.0050     1.1780 cd         1 DUA      -0.076400
     11 C1'         -0.7260     0.0000    -1.2730 c3         1 DUA       0.215500
     12 C17         -5.1680     3.5580    -2.0600 c3         1 DUA       0.286100
     13 C18         -6.2750     2.9280    -2.8650 ca         1 DUA      -0.098633
     14 C19         -5.9720     2.1440    -3.9620 ca         1 DUA      -0.100167
     15 C2'         -1.5170    -1.3140    -1.4250 c3         1 DUA      -0.112400
     16 C20         -6.9870     1.5670    -4.7000 ca         1 DUA      -0.101000
     17 C21         -8.3070     1.7730    -4.3420 ca         1 DUA      -0.099333
     18 C22         -8.6100     2.5570    -3.2440 ca         1 DUA      -0.101000
     19 C23         -7.5940     3.1300    -2.5020 ca         1 DUA      -0.100167
     20 C24         -5.5460     3.5600    -0.6010 ca         1 DUA      -0.098633
     21 C25         -6.2700     2.5060    -0.0730 ca         1 DUA      -0.100167
     22 C26         -6.6160     2.5070     1.2650 ca         1 DUA      -0.101000
     23 C27         -6.2390     3.5610     2.0760 ca         1 DUA      -0.099333
     24 C28         -5.5150     4.6140     1.5480 ca         1 DUA      -0.101000
     25 C29         -5.1630     4.6100     0.2110 ca         1 DUA      -0.100167
     26 C3'         -2.9870    -0.8550    -1.5830 c3         1 DUA       0.156100
     27 C30         -4.9540     4.9760    -2.5240 ca         1 DUA      -0.098633
     28 C31         -3.6710     5.4730    -2.6540 ca         1 DUA      -0.100167
     29 C32         -3.4740     6.7740    -3.0790 ca         1 DUA      -0.101000
     30 C33         -4.5610     7.5770    -3.3750 ca         1 DUA      -0.099333
     31 C34         -5.8430     7.0790    -3.2450 ca         1 DUA      -0.101000
     32 C35         -6.0400     5.7760    -2.8250 ca         1 DUA      -0.100167
     33 C4'         -2.8200     0.6160    -2.0450 c3         1 DUA       0.176100
     34 O4'         -1.6770     1.0770    -1.2920 os         1 DUA      -0.387600
     35 C5'         -4.0640     1.4360    -1.6920 c3         1 DUA       0.105800
     36 HO1         -4.1250    -2.3370    -2.1660 ho         1 DUA       0.396000
     37 HN2         -3.7160     2.7330    -3.2200 hn         1 DUA       0.270800
     38 H5          -0.5680     0.0010     3.2900 ha         1 DUA       0.150000
     39 H6          -1.7800     0.0050     1.1690 h4         1 DUA       0.137000
     40 H1'         -0.0330     0.1080    -2.0980 h2         1 DUA       0.078700
     41 H19         -4.9380     1.9830    -4.2430 ha         1 DUA       0.121333
     42 H2'         -1.4060    -1.9270    -0.5390 hc         1 DUA       0.043700
     43 H2'A        -1.1910    -1.8500    -2.3090 hc         1 DUA       0.043700
     44 H20         -6.7490     0.9520    -5.5600 ha         1 DUA       0.104000
     45 H21         -9.1030     1.3220    -4.9220 ha         1 DUA       0.103000
     46 H22         -9.6440     2.7170    -2.9620 ha         1 DUA       0.104000
     47 H23         -7.8310     3.7450    -1.6420 ha         1 DUA       0.121333
     48 H25         -6.5660     1.6800    -0.7090 ha         1 DUA       0.121333
     49 H26         -7.1830     1.6820     1.6780 ha         1 DUA       0.104000
     50 H27         -6.5120     3.5630     3.1240 ha         1 DUA       0.103000
     51 H28         -5.2170     5.4390     2.1840 ha         1 DUA       0.104000
     52 H29         -4.5960     5.4360    -0.2020 ha         1 DUA       0.121333
     53 H3'         -3.5070    -0.9010    -0.6340 h1         1 DUA       0.016700
     54 H31         -2.8200     4.8450    -2.4220 ha         1 DUA       0.121333
     55 H32         -2.4690     7.1650    -3.1800 ha         1 DUA       0.104000
     56 H33         -4.4070     8.5970    -3.7060 ha         1 DUA       0.103000
     57 H34         -6.6940     7.7070    -3.4790 ha         1 DUA       0.104000
     58 H35         -7.0450     5.3850    -2.7240 ha         1 DUA       0.121333
     59 H4'         -2.6170     0.6580    -3.1080 h1         1 DUA       0.036700
     60 H5'         -4.1640     1.4930    -0.6150 h1         1 DUA       0.038200
     61 H5'A        -4.9410     0.9590    -2.1120 h1         1 DUA       0.038200
     62 HN3          3.0380     0.0000     1.1360 hn         1 DUA       0.207500
@<TRIPOS>BOND
     1     1     3 1   
     2     1    10 1   
     3     1    11 1   
     4     2    26 1   
     5     2    36 1   
     6     3     5 2   
     7     3     6 1   
     8     4    12 1   
     9     4    35 1   
    10     4    37 1   
    11     6     7 1   
    12     6    62 1   
    13     7     8 2   
    14     7     9 1   
    15     9    10 2   
    16     9    38 1   
    17    10    39 1   
    18    11    15 1   
    19    11    34 1   
    20    11    40 1   
    21    12    13 1   
    22    12    20 1   
    23    12    27 1   
    24    13    14 ar  
    25    13    19 ar  
    26    14    16 ar  
    27    14    41 1   
    28    15    26 1   
    29    15    42 1   
    30    15    43 1   
    31    16    17 ar  
    32    16    44 1   
    33    17    18 ar  
    34    17    45 1   
    35    18    19 ar  
    36    18    46 1   
    37    19    47 1   
    38    20    21 ar  
    39    20    25 ar  
    40    21    22 ar  
    41    21    48 1   
    42    22    23 ar  
    43    22    49 1   
    44    23    24 ar  
    45    23    50 1   
    46    24    25 ar  
    47    24    51 1   
    48    25    52 1   
    49    26    33 1   
    50    26    53 1   
    51    27    28 ar  
    52    27    32 ar  
    53    28    29 ar  
    54    28    54 1   
    55    29    30 ar  
    56    29    55 1   
    57    30    31 ar  
    58    30    56 1   
    59    31    32 ar  
    60    31    57 1   
    61    32    58 1   
    62    33    34 1   
    63    33    35 1   
    64    33    59 1   
    65    35    60 1   
    66    35    61 1   
@<TRIPOS>SUBSTRUCTURE
     1 DUA         1 TEMP              0 ****  ****    0 ROOT
