@<TRIPOS>MOLECULE
molecule
   13    13     1     0     0
SMALL
bcc


@<TRIPOS>ATOM
      1 Cl1          0.0000     0.0000     0.0000 cl         1 DUB      -0.083900
      2 C02          1.7360     0.0000     0.0000 ca         1 DUB       0.009400
      3 C03          2.4280     0.0000     1.1960 ca         1 DUB      -0.111000
      4 C04          3.8110    -0.0010     1.1970 ca         1 DUB      -0.120000
      5 C05          4.5050    -0.0000     0.0010 ca         1 DUB      -0.111000
      6 C06          3.8180     0.0010    -1.1980 ca         1 DUB       0.009400
      7 Cl2          4.6910     0.0030    -2.6990 cl         1 DUB      -0.083900
      8 C08          2.4300    -0.0060    -1.2020 ca         1 DUB       0.117100
      9 O09          1.7520    -0.0040    -2.3800 oh         1 DUB      -0.500100
     10 H1           1.8870    -0.0000     2.1350 ha         1 DUB       0.151000
     11 H2           4.3510    -0.0010     2.1360 ha         1 DUB       0.145000
     12 H3           5.5880    -0.0010     0.0050 ha         1 DUB       0.151000
     13 H4           1.5960    -0.8930    -2.6540 ho         1 DUB       0.428000
@<TRIPOS>BOND
     1     5     4 ar
     2     5     6 ar
     3     4     3 ar
     4     7     6 1
     5     6     8 ar
     6     3     2 ar
     7     8     2 ar
     8     8     9 1
     9     2     1 1
    10     3    10 1
    11     4    11 1
    12     5    12 1
    13     9    13 1
@<TRIPOS>SUBSTRUCTURE
     1 DUB         1 TEMP              0 ****  ****    0 ROOT
