@<TRIPOS>MOLECULE
DUC
   14    14     1     0     0
SMALL
bcc


@<TRIPOS>ATOM
      1 N3           0.0000     0.0000     0.0000 ns         1 DUC      -0.156500
      2 C2           1.3420     0.0000     0.0000 c          1 DUC       0.609500
      3 O2           1.9350    -0.0040    -1.0610 o          1 DUC      -0.707500
      4 N1           2.0450     0.0000     1.1430 ns         1 DUC      -0.202900
      5 C6           1.3740    -0.1200     2.4390 c3         1 DUC       0.034000
      6 C5           0.0370     0.6210     2.3920 c3         1 DUC      -0.108400
      7 C4          -0.6930     0.2480     1.1260 c          1 DUC       0.595500
      8 O4          -1.9020     0.1700     1.1250 o          1 DUC      -0.638500
      9 HN3         -0.4930    -0.1880    -0.8510 hn         1 DUC       0.207500
     10 HN1          3.0420     0.0830     1.1090 hn         1 DUC       0.202500
     11 H61          1.1980    -1.1670     2.6570 h1         1 DUC       0.024200
     12 H62          1.9990     0.3140     3.2090 h1         1 DUC       0.024200
     13 H51          0.2790     1.6720     2.3010 hc         1 DUC       0.059200
     14 H52         -0.5550     0.2230     3.2080 hc         1 DUC       0.059200
@<TRIPOS>BOND
     1     1     2 1   
     2     1     7 1   
     3     1     9 1   
     4     2     3 2   
     5     2     4 1   
     6     4     5 1   
     7     4    10 1   
     8     5     6 1   
     9     5    11 1   
    10     5    12 1   
    11     6     7 1   
    12     6    13 1   
    13     6    14 1   
    14     7     8 2   
@<TRIPOS>SUBSTRUCTURE
     1 DUC         1 TEMP              0 ****  ****    0 ROOT
