@<TRIPOS>MOLECULE
molecule
   18    18     1     0     0
SMALL
bcc


@<TRIPOS>ATOM
      1 F            0.0000     0.0000     0.0000 f          1 DUG      -0.127900
      2 C02          1.3510     0.0000     0.0000 ca         1 DUG       0.106900
      3 C03          2.0430     0.0000     1.2000 ca         1 DUG       0.020400
      4 Cl           1.1750    -0.0010     2.7030 cl         1 DUG      -0.074400
      5 C05          3.4260    -0.0000     1.2010 ca         1 DUG      -0.129000
      6 C06          4.1190     0.0000    -0.0010 ca         1 DUG       0.135100
      7 O07          5.4790    -0.0000    -0.0010 os         1 DUG      -0.317900
      8 C08          6.1260    -0.0000    -1.2750 c3         1 DUG       0.015400
      9 C09          7.6200    -0.0010    -1.0790 c          1 DUG       0.579900
     10 O10          8.2970    -0.8580    -1.5950 o          1 DUG      -0.496100
     11 C11          3.4240     0.0000    -1.2010 ca         1 DUG      -0.195000
     12 C12          2.0420    -0.0050    -1.1990 ca         1 DUG      -0.119000
     13 H1           3.9670    -0.0000     2.1390 ha         1 DUG       0.165000
     14 H2           5.8340    -0.8850    -1.8290 h1         1 DUG       0.061700
     15 H3           5.8350     0.8840    -1.8280 h1         1 DUG       0.061700
     16 H4           8.0890     0.7750    -0.4860 h4         1 DUG       0.014200
     17 H5           3.9640    -0.0020    -2.1400 ha         1 DUG       0.145000
     18 H6           1.5000    -0.0050    -2.1370 ha         1 DUG       0.154000
@<TRIPOS>BOND
     1     1     2 1
     2     2    12 ar
     3     2     3 ar
     4    12    11 ar
     5     4     3 1
     6     3     5 ar
     7    11     6 ar
     8     5     6 ar
     9     6     7 1
    10     7     8 1
    11     8     9 1
    12     9    10 2
    13     5    13 1
    14     8    14 1
    15     8    15 1
    16     9    16 1
    17    11    17 1
    18    12    18 1
@<TRIPOS>SUBSTRUCTURE
     1 DUG         1 TEMP              0 ****  ****    0 ROOT
