@<TRIPOS>MOLECULE
DUH
   40    43     1     0     0
SMALL
bcc


@<TRIPOS>ATOM
      1 C2           0.0000     0.0000     0.0000 ca         1 DUH      -0.100000
      2 C3           1.3800     0.0000     0.0000 ca         1 DUH      -0.069500
      3 C4           2.0740     0.0000     1.2100 cp         1 DUH      -0.059000
      4 C5           1.3690    -0.0010     2.4120 ca         1 DUH      -0.069500
      5 C6          -0.0110    -0.0010     2.3990 ca         1 DUH      -0.100000
      6 C7          -0.6950    -0.0010     1.1970 ca         1 DUH      -0.085000
      7 C10          3.5570    -0.0010     1.2160 cp         1 DUH      -0.034000
      8 C11          4.2580    -1.0930     0.7040 ca         1 DUH       0.105900
      9 C12          5.6410    -1.0900     0.7110 ca         1 DUH       0.105400
     10 C13          6.3320    -0.0010     1.2290 ca         1 DUH      -0.096400
     11 C14          5.6360     1.0880     1.7400 ca         1 DUH       0.105400
     12 C15          4.2540     1.0940     1.7300 ca         1 DUH       0.105900
     13 F16          6.3200    -2.1470     0.2150 f          1 DUH      -0.104900
     14 F17          3.5870    -2.1520     0.2010 f          1 DUH      -0.105400
     15 F18          3.5780     2.1550     2.2220 f          1 DUH      -0.105400
     16 F19          6.3110     2.1450     2.2430 f          1 DUH      -0.104900
     17 N20          7.7330    -0.0010     1.2350 ns         1 DUH      -0.069100
     18 C22          8.4110     0.4890     0.1790 c          1 DUH       0.656300
     19 O23          7.8100     1.0140    -0.7410 o          1 DUH      -0.622100
     20 C25          9.8710     0.3940     0.1390 cc         1 DUH      -0.459800
     21 C26         10.7910     1.3410     0.6340 cc         1 DUH       0.709900
     22 N27         12.0050     0.8990     0.4140 nd         1 DUH      -0.841100
     23 N28         11.9440    -0.3440    -0.2280 na         1 DUH       0.755000
     24 C29         10.6280    -0.6680    -0.3980 cd         1 DUH      -0.153300
     25 C30         10.2720    -1.8730    -1.0160 cd         1 DUH      -0.074000
     26 C31         11.2540    -2.7200    -1.4410 cc         1 DUH      -0.082000
     27 C32         12.5970    -2.3670    -1.2520 cc         1 DUH      -0.122000
     28 C33         12.9170    -1.1930    -0.6590 cd         1 DUH      -0.211300
     29 O34         10.4720     2.5140     1.2370 oh         1 DUH      -0.526600
     30 H1          -0.5410     0.0000    -0.9390 ha         1 DUH       0.106500
     31 H2           1.9230     0.0010    -0.9370 ha         1 DUH       0.109500
     32 H3           1.9030    -0.0010     3.3540 ha         1 DUH       0.109500
     33 H4          -0.5610    -0.0020     3.3330 ha         1 DUH       0.106500
     34 H5          -1.7780    -0.0010     1.1920 ha         1 DUH       0.103000
     35 H6           8.2290    -0.3480     2.0320 hn         1 DUH       0.183500
     36 H9           9.2290    -2.1310    -1.1540 ha         1 DUH       0.130000
     37 H10         10.9980    -3.6590    -1.9150 ha         1 DUH       0.117000
     38 H11         13.3830    -3.0330    -1.5860 ha         1 DUH       0.122000
     39 H12         13.9580    -0.9300    -0.5180 h4         1 DUH       0.145000
     40 H7          11.2290     3.0760     1.2520 ho         1 DUH       0.419000
@<TRIPOS>BOND
     1     1     2 ar  
     2     1     6 ar  
     3     1    30 1   
     4     2     3 ar  
     5     2    31 1   
     6     3     4 ar  
     7     3     7 1   
     8     4     5 ar  
     9     4    32 1   
    10     5     6 ar  
    11     5    33 1   
    12     6    34 1   
    13     7     8 ar  
    14     7    12 ar  
    15     8     9 ar  
    16     8    14 1   
    17     9    10 ar  
    18     9    13 1   
    19    10    11 ar  
    20    10    17 1   
    21    11    12 ar  
    22    11    16 1   
    23    12    15 1   
    24    17    18 1   
    25    17    35 1   
    26    18    19 2   
    27    18    20 1   
    28    20    21 1   
    29    20    24 2   
    30    21    22 2   
    31    21    29 1   
    32    22    23 1   
    33    23    24 1   
    34    23    28 1   
    35    24    25 1   
    36    25    26 2   
    37    25    36 1   
    38    26    27 1   
    39    26    37 1   
    40    27    28 2   
    41    27    38 1   
    42    28    39 1   
    43    29    40 1   
@<TRIPOS>SUBSTRUCTURE
     1 DUH         1 TEMP              0 ****  ****    0 ROOT
