@<TRIPOS>MOLECULE
DUK
   36    38     1     0     0
SMALL
bcc


@<TRIPOS>ATOM
      1 O1           0.0000     0.0000     0.0000 o          1 DUK      -0.368100
      2 C13          1.2130     0.0000     0.0000 c          1 DUK       0.329100
      3 N4           1.8860     0.0000     1.1680 nz         1 DUK       0.202600
      4 C11          1.9660    -0.0060    -1.3050 c3         1 DUK      -0.028600
      5 C12          2.3250    -1.4450    -1.6800 c3         1 DUK       0.001900
      6 S            0.9320     0.7170    -2.6020 ss         1 DUK      -0.205300
      7 C6           2.0800     0.7240    -3.9390 cc         1 DUK       0.350800
      8 N1           3.2930     0.2610    -3.7390 nd         1 DUK      -0.580100
      9 C9           4.2020     0.2470    -4.7240 cd         1 DUK      -0.012900
     10 N3           5.5000    -0.1610    -4.8070 na         1 DUK       0.653300
     11 N2           5.9480     0.0700    -6.1130 nd         1 DUK      -0.630800
     12 C10          4.9860     0.5960    -6.8190 cc         1 DUK       0.507200
     13 C8           3.8520     0.7330    -5.9940 cc         1 DUK      -0.421900
     14 C7           2.5380     1.2290    -6.1950 c          1 DUK       0.644100
     15 O            2.1920     1.6590    -7.2810 o          1 DUK      -0.624500
     16 N            1.6790     1.2050    -5.1520 ns         1 DUK       0.046600
     17 C2           6.2540    -0.7150    -3.7650 ca         1 DUK      -0.143200
     18 C            6.0610    -0.2830    -2.4600 ca         1 DUK      -0.114000
     19 C4           7.1930    -1.7020    -4.0360 ca         1 DUK      -0.061000
     20 C5           7.9350    -2.2480    -3.0070 ca         1 DUK      -0.065000
     21 C3           7.7460    -1.8120    -1.7080 ca         1 DUK      -0.078000
     22 C1           6.8070    -0.8320    -1.4350 ca         1 DUK      -0.027600
     23 Cl           6.5670    -0.2930     0.1980 cl         1 DUK      -0.058400
     24 H1           2.5710     0.7300     1.1590 hn         1 DUK       0.250800
     25 H2           2.3420    -0.8830     1.2910 hn         1 DUK       0.250800
     26 H3           2.8740     0.5770    -1.2000 h1         1 DUK       0.082700
     27 H4           1.6080    -2.1240    -1.2330 hc         1 DUK       0.039033
     28 H5           3.3180    -1.6770    -1.3150 hc         1 DUK       0.039033
     29 H6           2.3020    -1.5540    -2.7570 hc         1 DUK       0.039033
     30 H7           5.0490     0.8800    -7.8630 h4         1 DUK       0.029100
     31 H8           0.7430     1.5410    -5.2700 hn         1 DUK       0.196500
     32 H9           5.3260     0.4840    -2.2460 ha         1 DUK       0.119000
     33 H10          7.3430    -2.0440    -5.0530 ha         1 DUK       0.137000
     34 H11          8.6690    -3.0160    -3.2180 ha         1 DUK       0.124000
     35 H12          8.3300    -2.2420    -0.9030 ha         1 DUK       0.125000
     36 H43          1.2470     0.1600     1.9220 hn         1 DUK       0.250800
@<TRIPOS>BOND
     1     1     2 2   
     2     2     3 1   
     3     2     4 1   
     4     3    24 1   
     5     3    25 1   
     6     3    36 1   
     7     4     5 1   
     8     4     6 1   
     9     4    26 1   
    10     5    27 1   
    11     5    28 1   
    12     5    29 1   
    13     6     7 1   
    14     7     8 2   
    15     7    16 1   
    16     8     9 1   
    17     9    10 1   
    18     9    13 2   
    19    10    11 1   
    20    10    17 1   
    21    11    12 2   
    22    12    13 1   
    23    12    30 1   
    24    13    14 1   
    25    14    15 2   
    26    14    16 1   
    27    16    31 1   
    28    17    18 ar  
    29    17    19 ar  
    30    18    22 ar  
    31    18    32 1   
    32    19    20 ar  
    33    19    33 1   
    34    20    21 ar  
    35    20    34 1   
    36    21    22 ar  
    37    21    35 1   
    38    22    23 1   
@<TRIPOS>SUBSTRUCTURE
     1 DUK         1 TEMP              0 ****  ****    0 ROOT
