@<TRIPOS>MOLECULE
molecule
   31    32     1     0     0
SMALL
bcc


@<TRIPOS>ATOM
      1 C1           0.0000     0.0000     0.0000 c3         1 DUL      -0.080100
      2 C2           1.5300     0.0000     0.0000 c3         1 DUL      -0.003300
      3 S3           2.1350     0.0000     1.7110 ss         1 DUL      -0.237000
      4 C4           3.8860     0.0010     1.5130 ca         1 DUL       0.043900
      5 C5           4.4400     0.0010     0.2380 ca         1 DUL      -0.110000
      6 C6           5.8140     0.0020     0.0770 ca         1 DUL      -0.103000
      7 C7           6.6420     0.0020     1.1800 ca         1 DUL      -0.095000
      8 C8           6.0940     0.0010     2.4650 ca         1 DUL      -0.058000
      9 C9           4.7090     0.0070     2.6280 ca         1 DUL      -0.091000
     10 C10          6.9800     0.0020     3.6490 cc         1 DUL       0.174900
     11 C11          8.3440     0.0020     3.6090 cd         1 DUL      -0.203000
     12 C12          8.9530     0.0030     4.8340 cd         1 DUL       0.030000
     13 C13          8.0960     0.0030     5.8990 cc         1 DUL      -0.249700
     14 S14          6.4350     0.0090     5.3200 ss         1 DUL      -0.134800
     15 C15          8.4990     0.0030     7.3070 c          1 DUL       0.541700
     16 O16          9.6800     0.0030     7.6020 o          1 DUL      -0.433100
     17 N17          7.5630     0.0040     8.2760 nz         1 DUL      -0.675400
     18 H1          -0.3610    -0.8850     0.5110 hc         1 DUL       0.054033
     19 H1A         -0.3610     0.0000    -1.0210 hc         1 DUL       0.054033
     20 H1B         -0.3610     0.8840     0.5110 hc         1 DUL       0.054033
     21 H2           1.8910    -0.8850    -0.5110 h1         1 DUL       0.066700
     22 H2A          1.8910     0.8850    -0.5110 h1         1 DUL       0.066700
     23 H5           3.7950     0.0010    -0.6320 ha         1 DUL       0.151000
     24 H6           6.2400     0.0020    -0.9190 ha         1 DUL       0.153000
     25 H7           7.7180     0.0000     1.0490 ha         1 DUL       0.140000
     26 H9           4.2790     0.0060     3.6220 ha         1 DUL       0.138000
     27 H11          8.9020     0.0020     2.6800 ha         1 DUL       0.188000
     28 H12         10.0300     0.0010     4.9510 ha         1 DUL       0.184000
     29 HN17         6.9940     0.8220     8.1890 hn         1 DUL       0.476800
     30 HN1A         8.0090     0.0010     9.1720 hn         1 DUL       0.476800
     31 H173         6.9900    -0.8120     8.1860 hn         1 DUL       0.476800
@<TRIPOS>BOND
     1     1     2 1
     2     2     3 1
     3     3     4 1
     4     4     5 ar
     5     4     9 ar
     6     5     6 ar
     7     6     7 ar
     8     7     8 ar
     9     8     9 ar
    10     8    10 1
    11    10    11 2
    12    10    14 1
    13    11    12 1
    14    12    13 2
    15    13    14 1
    16    13    15 1
    17    15    16 2
    18    15    17 1
    19     1    18 1
    20     1    19 1
    21     1    20 1
    22     2    21 1
    23     2    22 1
    24     5    23 1
    25     6    24 1
    26     7    25 1
    27     9    26 1
    28    11    27 1
    29    12    28 1
    30    17    29 1
    31    17    30 1
    32    31    17 1
@<TRIPOS>SUBSTRUCTURE
     1 DUL         1 TEMP              0 ****  ****    0 ROOT
