@<TRIPOS>MOLECULE
DUN
   37    37     1     0     0
SMALL
bcc


@<TRIPOS>ATOM
      1 N1          0.2570    0.6180   -0.4260 n         1 DUN     -0.272000
      2 C2          0.1540    1.3210    0.7960 c2        1 DUN      0.396000
      3 N3          1.0900    1.0470    1.8080 n         1 DUN     -0.375000
      4 C4          2.1050    0.0790    1.6720 c2        1 DUN      0.357000
      5 C5          2.1430   -0.6330    0.3980 c2        1 DUN     -0.327000
      6 C6          1.2300   -0.3560   -0.5740 c2        1 DUN      0.079000
      7 O2         -0.7210    2.1970    0.9980 o         1 DUN     -0.405000
      8 O4          2.8800   -0.0930    2.6330 o         1 DUN     -0.380000
      9 C1'        -0.7740    0.8280   -1.4600 c3        1 DUN      0.152000
     10 C2'        -0.2220    1.4500   -2.7580 c3        1 DUN     -0.208000
     11 C3'        -0.2520    0.3210   -3.7950 c3        1 DUN      0.038000
     12 C4'        -1.0990   -0.7990   -3.1540 c3        1 DUN     -0.046000
     13 O4'        -1.3880   -0.4140   -1.7900 os        1 DUN     -0.287000
     14 O3'        -0.8620    0.8140   -4.9680 oh        1 DUN     -0.371000
     15 C5'        -0.4100   -2.1780   -3.1530 c3        1 DUN      0.058000
     16 O5'        -0.8950   -2.9860   -4.1600 os        1 DUN     -0.733000
     17 PA          0.0450   -3.0770   -5.5820 p5        1 DUN      1.971000
     18 O1A        -0.8310   -3.7900   -6.5420 o         1 DUN     -0.863500
     19 O2A         0.3410   -1.6160   -5.7300 o         1 DUN     -0.863500
     20 PB          3.8890   -4.7160   -5.2900 p3        1 DUN      2.412000
     21 O1B         3.9920   -3.9320   -4.0400 o         1 DUN     -1.135333
     22 O2B         3.2680   -6.0550   -5.2420 o         1 DUN     -1.135333
     23 O3B         4.6120   -4.2820   -6.4970 o         1 DUN     -1.135333
     24 N3A         1.3230   -3.9310   -5.1370 n3        1 DUN     -1.003000
     25 H3          1.0000    1.5580    2.6570 hn        1 DUN      0.246000
     26 H5          2.9250   -1.3910    0.2650 ha        1 DUN      0.189000
     27 H6          1.2100   -0.8940   -1.5480 h4        1 DUN      0.206000
     28 H1'        -1.5820    1.4650   -0.9910 h2        1 DUN      0.137000
     29 H2'1       -0.8960    2.2840   -3.0760 hc        1 DUN      0.103000
     30 H2'2        0.8090    1.8580   -2.6420 hc        1 DUN      0.103000
     31 H3'         0.7830   -0.0500   -4.0350 h1        1 DUN      0.136000
     32 H4'        -2.0990   -0.8790   -3.6610 h1        1 DUN      0.131000
     33 HA         -0.6380    0.1740   -5.6710 ho        1 DUN      0.278000
     34 H5'1        0.7040   -2.0400   -3.2530 h1        1 DUN      0.050000
     35 H5'2       -0.6300   -2.6740   -2.1630 h1        1 DUN      0.050000
     36 H3A         1.9040   -3.6230   -4.3940 hn        1 DUN      0.224000
     37 H3A2        1.3600   -4.9140   -5.2650 hn        1 DUN      0.224000
@<TRIPOS>BOND
     1    1    2 1   
     2    1    6 1   
     3    1    9 1   
     4    2    3 1   
     5    2    7 1   
     6    3    4 1   
     7    3   25 1   
     8    4    5 1   
     9    4    8 1   
    10    5    6 1   
    11    5   26 1   
    12    6   27 1   
    13    9   10 1   
    14    9   13 1   
    15    9   28 1   
    16   10   11 1   
    17   10   29 1   
    18   10   30 1   
    19   11   12 1   
    20   11   14 1   
    21   11   31 1   
    22   12   13 1   
    23   12   15 1   
    24   12   32 1   
    25   14   33 1   
    26   15   16 1   
    27   15   34 1   
    28   15   35 1   
    29   16   17 1   
    30   17   18 1   
    31   17   19 1   
    32   17   24 1   
    33   20   21 1   
    34   20   22 1   
    35   20   23 1   
    36   24   36 1   
    37   24   37 1   
@<TRIPOS>SUBSTRUCTURE
     1 DUN         1 TEMP              0 ****  ****    0 ROOT
