@<TRIPOS>MOLECULE
DUO
   64    68     1     0     0
SMALL
bcc


@<TRIPOS>ATOM
      1 N1           0.0000     0.0000     0.0000 nu         1 DUO      -0.355600
      2 C2           1.4690     0.0000     0.0000 c3         1 DUO      -0.065800
      3 C3           1.8750     0.0000     1.4570 c          1 DUO       0.645700
      4 C4           0.6140     0.0020     2.2150 ca         1 DUO      -0.203600
      5 C5          -0.4570     0.0010     1.3120 ca         1 DUO      -0.003400
      6 C6          -1.7630     0.0010     1.8150 ca         1 DUO       0.130100
      7 C7          -1.9890     0.0020     3.1730 ca         1 DUO      -0.107000
      8 C8          -0.9210     0.0020     4.0790 ca         1 DUO      -0.086400
      9 C9           0.3700     0.0030     3.5970 ca         1 DUO      -0.057300
     10 C10          2.2000    -1.2510     4.7480 c3         1 DUO      -0.002100
     11 C11          1.3250     0.0040     4.7680 c3         1 DUO       0.017600
     12 C12          0.4160     0.0040     6.0070 c3         1 DUO       0.009000
     13 N13         -0.9490     0.0040     5.4800 n          1 DUO       0.011000
     14 C14         -2.0690     0.0020     6.2300 c          1 DUO       0.643300
     15 C15         -1.9730    -0.1070     7.6910 cc         1 DUO      -0.334300
     16 C16         -3.0250    -0.2240     8.5440 cd         1 DUO      -0.068200
     17 C17         -2.5090    -0.3060     9.8590 ca         1 DUO      -0.080800
     18 C18         -3.1120    -0.4370    11.1200 ca         1 DUO      -0.166000
     19 C19         -2.3280    -0.4840    12.2510 ca         1 DUO       0.094100
     20 C20         -0.9370    -0.4020    12.1500 ca         1 DUO       0.087100
     21 C21         -0.3290    -0.2710    10.9130 ca         1 DUO       0.103100
     22 C22         -1.1090    -0.2230     9.7570 ca         1 DUO      -0.253200
     23 N23         -0.7990    -0.1010     8.4200 na         1 DUO       0.335600
     24 O24         -2.9110    -0.6110    13.4740 os         1 DUO      -0.269900
     25 C25         -4.3220    -0.6690    13.2540 c3         1 DUO       0.211700
     26 O26         -0.1740    -0.4500    13.2750 os         1 DUO      -0.298900
     27 C27         -0.1090     0.8830    13.7870 c3         1 DUO       0.236700
     28 O28          1.0260    -0.1920    10.8250 os         1 DUO      -0.310900
     29 C29          1.5010    -1.5150    10.5730 c3         1 DUO       0.228700
     30 O30         -3.1580     0.0920     5.6960 o          1 DUO      -0.622100
     31 O31         -2.8170     0.0020     0.9540 oh         1 DUO      -0.494100
     32 O32          3.0030    -0.0020     1.9070 o          1 DUO      -0.500100
     33 C33          1.9980    -1.2550    -0.6970 c3         1 DUO       0.009900
     34 C34          1.9910     1.2350    -0.6870 c          1 DUO       0.717100
     35 O35          3.0270     1.7380    -0.3200 o          1 DUO      -0.564000
     36 O36          1.3050     1.7770    -1.7050 os         1 DUO      -0.406900
     37 C37          1.8070     2.9680    -2.3660 c3         1 DUO       0.274700
     38 H1          -0.3340    -0.8190    -0.4690 hn         1 DUO       0.278800
     39 H7          -3.0070     0.0020     3.5460 ha         1 DUO       0.158000
     40 H101         2.6290    -1.4090     5.7310 hc         1 DUO       0.016033
     41 H102         2.9950    -1.1260     4.0240 hc         1 DUO       0.016033
     42 H103         1.5960    -2.1080     4.4760 hc         1 DUO       0.016033
     43 H11          1.9370     0.8980     4.7520 hc         1 DUO       0.052700
     44 H121         0.5890     0.8950     6.5980 h1         1 DUO       0.029200
     45 H122         0.5900    -0.8870     6.5980 h1         1 DUO       0.029200
     46 H16         -4.0730    -0.1800     8.2720 ha         1 DUO       0.143000
     47 H18         -4.1900    -0.5000    11.2030 ha         1 DUO       0.139000
     48 H23          0.1240    -0.0170     8.0410 hn         1 DUO       0.146700
     49 H251        -4.8320    -0.7690    14.2040 h1         1 DUO       0.003367
     50 H252        -4.6490     0.2390    12.7630 h1         1 DUO       0.003367
     51 H253        -4.5550    -1.5220    12.6280 h1         1 DUO       0.003367
     52 H271         0.9270     1.1630    13.9340 h1         1 DUO      -0.004300
     53 H272        -0.5710     1.5640    13.0830 h1         1 DUO      -0.004300
     54 H273        -0.6340     0.9320    14.7340 h1         1 DUO      -0.004300
     55 H291         0.6740    -2.1420    10.2630 h1         1 DUO      -0.003300
     56 H292         1.9410    -1.9190    11.4770 h1         1 DUO      -0.003300
     57 H293         2.2470    -1.4870     9.7890 h1         1 DUO      -0.003300
     58 H31         -3.2530     0.8360     0.9920 ho         1 DUO       0.411000
     59 H331         3.0680    -1.1650    -0.8400 hc         1 DUO       0.023033
     60 H332         1.7870    -2.1240    -0.0850 hc         1 DUO       0.023033
     61 H333         1.5130    -1.3650    -1.6600 hc         1 DUO       0.023033
     62 H371         2.7770     2.7580    -2.8010 h1         1 DUO       0.001033
     63 H372         1.1170     3.2660    -3.1470 h1         1 DUO       0.001033
     64 H373         1.9020     3.7700    -1.6430 h1         1 DUO       0.001033
@<TRIPOS>BOND
     1     1     2 1   
     2     1     5 1   
     3     1    38 1   
     4     2     3 1   
     5     2    33 1   
     6     2    34 1   
     7     3     4 1   
     8     3    32 2   
     9     4     5 ar  
    10     4     9 ar  
    11     5     6 ar  
    12     6     7 ar  
    13     6    31 1   
    14     7     8 ar  
    15     7    39 1   
    16     8     9 ar  
    17     8    13 1   
    18     9    11 1   
    19    10    11 1   
    20    10    40 1   
    21    10    41 1   
    22    10    42 1   
    23    11    12 1   
    24    11    43 1   
    25    12    13 1   
    26    12    44 1   
    27    12    45 1   
    28    13    14 1   
    29    14    15 1   
    30    14    30 2   
    31    15    16 2   
    32    15    23 1   
    33    16    17 1   
    34    16    46 1   
    35    17    18 ar  
    36    17    22 ar  
    37    18    19 ar  
    38    18    47 1   
    39    19    20 ar  
    40    19    24 1   
    41    20    21 ar  
    42    20    26 1   
    43    21    22 ar  
    44    21    28 1   
    45    22    23 1   
    46    23    48 1   
    47    24    25 1   
    48    25    49 1   
    49    25    50 1   
    50    25    51 1   
    51    26    27 1   
    52    27    52 1   
    53    27    53 1   
    54    27    54 1   
    55    28    29 1   
    56    29    55 1   
    57    29    56 1   
    58    29    57 1   
    59    31    58 1   
    60    33    59 1   
    61    33    60 1   
    62    33    61 1   
    63    34    35 2   
    64    34    36 1   
    65    36    37 1   
    66    37    62 1   
    67    37    63 1   
    68    37    64 1   
@<TRIPOS>SUBSTRUCTURE
     1 DUO         1 TEMP              0 ****  ****    0 ROOT
