@<TRIPOS>MOLECULE
DUQ
   69    72     1     0     0
SMALL
bcc


@<TRIPOS>ATOM
      1 O4           0.0000     0.0000     0.0000 o          1 DUQ      -0.660500
      2 C4           1.2180     0.0000     0.0000 c          1 DUQ       0.612700
      3 N3           1.8980     0.0000     1.1640 ns         1 DUQ      -0.127500
      4 C2           3.2440     0.0010     1.1630 c          1 DUQ       0.583500
      5 O2           3.8440    -0.0000     2.2210 o          1 DUQ      -0.715500
      6 C5           1.9320    -0.0040    -1.2220 cc         1 DUQ      -0.306200
      7 C6           3.2820    -0.0020    -1.1940 cd         1 DUQ      -0.085400
      8 N1           3.9350     0.0020     0.0080 n          1 DUQ       0.045000
      9 C1'          5.3990     0.0040     0.0390 c3         1 DUQ       0.046000
     10 C1           5.9070    -1.4310     0.2060 c3         1 DUQ      -0.138700
     11 C38          5.5250    -2.2430    -1.0040 c          1 DUQ       0.567100
     12 N34          5.1550    -3.5300    -0.8630 ns         1 DUQ      -0.176900
     13 C39          4.8880    -4.3500    -2.0470 c3         1 DUQ       0.037000
     14 C40          4.3670    -5.7220    -1.6100 c3         1 DUQ       0.206400
     15 O37          3.1170    -5.5650    -0.9370 oh         1 DUQ      -0.595800
     16 O38          5.5520    -1.7370    -2.1060 o          1 DUQ      -0.663100
     17 C4'          7.4300    -1.4180     0.3530 c3         1 DUQ      -0.015400
     18 C5'          7.9260    -2.8370     0.6360 c3         1 DUQ       0.160400
     19 O1           9.3320    -2.8080     0.8950 os         1 DUQ      -0.390600
     20 C17          9.9180    -4.0990     1.0700 c3         1 DUQ       0.343700
     21 C30          9.3730    -4.7320     2.3250 ca         1 DUQ      -0.114633
     22 C31          8.8210    -3.9410     3.3140 ca         1 DUQ      -0.092000
     23 C32          8.3210    -4.5220     4.4650 ca         1 DUQ      -0.105167
     24 C33          8.3730    -5.8930     4.6250 ca         1 DUQ      -0.095667
     25 C34          8.9230    -6.6850     3.6340 ca         1 DUQ      -0.105167
     26 C35          9.4200    -6.1050     2.4820 ca         1 DUQ      -0.092000
     27 C24          9.5840    -4.9670    -0.1170 ca         1 DUQ      -0.114633
     28 C25          8.3890    -5.6610    -0.1510 ca         1 DUQ      -0.092000
     29 C26          8.0840    -6.4570    -1.2390 ca         1 DUQ      -0.105167
     30 C27          8.9720    -6.5580    -2.2930 ca         1 DUQ      -0.095667
     31 C28         10.1670    -5.8630    -2.2590 ca         1 DUQ      -0.105167
     32 C29         10.4710    -5.0640    -1.1730 ca         1 DUQ      -0.092000
     33 C18         11.4140    -3.9600     1.1860 ca         1 DUQ      -0.114633
     34 C19         12.0370    -2.8080     0.7460 ca         1 DUQ      -0.092000
     35 C20         13.4100    -2.6810     0.8520 ca         1 DUQ      -0.105167
     36 C21         14.1590    -3.7050     1.4000 ca         1 DUQ      -0.095667
     37 C22         13.5350    -4.8570     1.8410 ca         1 DUQ      -0.105167
     38 C23         12.1620    -4.9830     1.7380 ca         1 DUQ      -0.092000
     39 H3           1.4000    -0.0010     2.0320 hn         1 DUQ       0.205500
     40 H5           1.4030    -0.0080    -2.1670 ha         1 DUQ       0.151000
     41 H6           3.8460    -0.0030    -2.1190 h4         1 DUQ       0.158000
     42 H1'1         5.7430     0.6080     0.8710 h1         1 DUQ       0.055200
     43 H1'2         5.7800     0.4160    -0.8880 h1         1 DUQ       0.055200
     44 H1           5.4630    -1.8700     1.0910 hc         1 DUQ       0.053700
     45 H4'1         7.7090    -0.7670     1.1730 hc         1 DUQ       0.035700
     46 H4'2         7.8780    -1.0550    -0.5640 hc         1 DUQ       0.035700
     47 H34          5.0150    -3.9120     0.0520 hn         1 DUQ       0.185500
     48 H391         4.1440    -3.8620    -2.6650 h1         1 DUQ       0.036700
     49 H392         5.8030    -4.4750    -2.6130 h1         1 DUQ       0.036700
     50 H401         4.2320    -6.3510    -2.4820 h1         1 DUQ      -0.004800
     51 H402         5.0830    -6.1830    -0.9400 h1         1 DUQ      -0.004800
     52 H37          2.6710    -6.3950    -0.9040 ho         1 DUQ       0.399000
     53 H5'1         7.4080    -3.2350     1.4990 h1         1 DUQ       0.012700
     54 H5'2         7.7310    -3.4660    -0.2250 h1         1 DUQ       0.012700
     55 H31          8.7800    -2.8660     3.1890 ha         1 DUQ       0.121833
     56 H35          9.8510    -6.7250     1.7050 ha         1 DUQ       0.121833
     57 H32          7.8890    -3.9010     5.2410 ha         1 DUQ       0.104167
     58 H33          7.9830    -6.3480     5.5280 ha         1 DUQ       0.102667
     59 HA           8.9620    -7.7610     3.7600 ha         1 DUQ       0.104167
     60 H25          7.6930    -5.5820     0.6750 ha         1 DUQ       0.121833
     61 H29         11.4060    -4.5190    -1.1460 ha         1 DUQ       0.121833
     62 H26          7.1480    -7.0020    -1.2660 ha         1 DUQ       0.104167
     63 H27          8.7340    -7.1830    -3.1450 ha         1 DUQ       0.102667
     64 H28         10.8630    -5.9400    -3.0860 ha         1 DUQ       0.104167
     65 H19         11.4510    -2.0050     0.3160 ha         1 DUQ       0.121833
     66 H23         11.6740    -5.8860     2.0840 ha         1 DUQ       0.121833
     67 H20         13.8980    -1.7780     0.5060 ha         1 DUQ       0.104167
     68 H21         15.2340    -3.6060     1.4810 ha         1 DUQ       0.102667
     69 H22         14.1210    -5.6590     2.2720 ha         1 DUQ       0.104167
@<TRIPOS>BOND
     1     1     2 2   
     2     2     3 1   
     3     2     6 1   
     4     3     4 1   
     5     3    39 1   
     6     4     5 2   
     7     4     8 1   
     8     6     7 2   
     9     6    40 1   
    10     7     8 1   
    11     7    41 1   
    12     8     9 1   
    13     9    10 1   
    14     9    42 1   
    15     9    43 1   
    16    10    11 1   
    17    10    17 1   
    18    10    44 1   
    19    11    12 1   
    20    11    16 2   
    21    12    13 1   
    22    12    47 1   
    23    13    14 1   
    24    13    48 1   
    25    13    49 1   
    26    14    15 1   
    27    14    50 1   
    28    14    51 1   
    29    15    52 1   
    30    17    18 1   
    31    17    45 1   
    32    17    46 1   
    33    18    19 1   
    34    18    53 1   
    35    18    54 1   
    36    19    20 1   
    37    20    21 1   
    38    20    27 1   
    39    20    33 1   
    40    21    22 ar  
    41    21    26 ar  
    42    22    23 ar  
    43    22    55 1   
    44    23    24 ar  
    45    23    57 1   
    46    24    25 ar  
    47    24    58 1   
    48    25    26 ar  
    49    25    59 1   
    50    26    56 1   
    51    27    28 ar  
    52    27    32 ar  
    53    28    29 ar  
    54    28    60 1   
    55    29    30 ar  
    56    29    62 1   
    57    30    31 ar  
    58    30    63 1   
    59    31    32 ar  
    60    31    64 1   
    61    32    61 1   
    62    33    34 ar  
    63    33    38 ar  
    64    34    35 ar  
    65    34    65 1   
    66    35    36 ar  
    67    35    67 1   
    68    36    37 ar  
    69    36    68 1   
    70    37    38 ar  
    71    37    69 1   
    72    38    66 1   
@<TRIPOS>SUBSTRUCTURE
     1 DUQ         1 TEMP              0 ****  ****    0 ROOT
