@<TRIPOS>MOLECULE
molecule
   69    72     1     0     0
SMALL
bcc


@<TRIPOS>ATOM
      1 O4           0.0000     0.0000     0.0000 o          1 DUQ      -0.623500
      2 C4           1.2180     0.0000     0.0000 c          1 DUQ       0.703700
      3 N3           1.8980     0.0000     1.1640 ns         1 DUQ      -0.560500
      4 C2           3.2440     0.0010     1.1630 c          1 DUQ       0.806500
      5 O2           3.8440    -0.0000     2.2210 o          1 DUQ      -0.664500
      6 C5           1.9320    -0.0040    -1.2220 cc         1 DUQ      -0.333200
      7 C6           3.2820    -0.0020    -1.1940 cd         1 DUQ       0.044600
      8 N1           3.9350     0.0020     0.0080 n          1 DUQ      -0.368000
      9 C1'          5.3990     0.0040     0.0390 c3         1 DUQ       0.126000
     10 C1           5.9070    -1.4310     0.2060 c3         1 DUQ      -0.165700
     11 C38          5.5250    -2.2430    -1.0040 c          1 DUQ       0.661100
     12 N34          5.1550    -3.5300    -0.8630 ns         1 DUQ      -0.570900
     13 C39          4.8880    -4.3500    -2.0470 c3         1 DUQ       0.112000
     14 C40          4.3670    -5.7220    -1.6100 c3         1 DUQ       0.119400
     15 O37          3.1170    -5.5650    -0.9370 oh         1 DUQ      -0.608800
     16 O38          5.5520    -1.7370    -2.1060 o          1 DUQ      -0.628100
     17 C4'          7.4300    -1.4180     0.3530 c3         1 DUQ      -0.068400
     18 C5'          7.9260    -2.8370     0.6360 c3         1 DUQ       0.119400
     19 O1           9.3320    -2.8080     0.8950 os         1 DUQ      -0.409600
     20 C17          9.9180    -4.0990     1.0700 c3         1 DUQ       0.301700
     21 C30          9.3730    -4.7320     2.3250 ca         1 DUQ      -0.102300
     22 C31          8.8210    -3.9410     3.3140 ca         1 DUQ      -0.110833
     23 C32          8.3210    -4.5220     4.4650 ca         1 DUQ      -0.134000
     24 C33          8.3730    -5.8930     4.6250 ca         1 DUQ      -0.122667
     25 C34          8.9230    -6.6850     3.6340 ca         1 DUQ      -0.134000
     26 C35          9.4200    -6.1050     2.4820 ca         1 DUQ      -0.110833
     27 C24          9.5840    -4.9670    -0.1170 ca         1 DUQ      -0.102300
     28 C25          8.3890    -5.6610    -0.1510 ca         1 DUQ      -0.110833
     29 C26          8.0840    -6.4570    -1.2390 ca         1 DUQ      -0.134000
     30 C27          8.9720    -6.5580    -2.2930 ca         1 DUQ      -0.122667
     31 C28         10.1670    -5.8630    -2.2590 ca         1 DUQ      -0.134000
     32 C29         10.4710    -5.0640    -1.1730 ca         1 DUQ      -0.110833
     33 C18         11.4140    -3.9600     1.1860 ca         1 DUQ      -0.102300
     34 C19         12.0370    -2.8080     0.7460 ca         1 DUQ      -0.110833
     35 C20         13.4100    -2.6810     0.8520 ca         1 DUQ      -0.134000
     36 C21         14.1590    -3.7050     1.4000 ca         1 DUQ      -0.122667
     37 C22         13.5350    -4.8570     1.8410 ca         1 DUQ      -0.134000
     38 C23         12.1620    -4.9830     1.7380 ca         1 DUQ      -0.110833
     39 H3           1.4000    -0.0010     2.0320 hn         1 DUQ       0.361500
     40 H5           1.4030    -0.0080    -2.1670 ha         1 DUQ       0.179000
     41 H6           3.8460    -0.0030    -2.1190 h4         1 DUQ       0.187000
     42 H1'1         5.7430     0.6080     0.8710 h1         1 DUQ       0.084200
     43 H1'2         5.7800     0.4160    -0.8880 h1         1 DUQ       0.084200
     44 H1           5.4630    -1.8700     1.0910 hc         1 DUQ       0.079700
     45 H4'1         7.7090    -0.7670     1.1730 hc         1 DUQ       0.066700
     46 H4'2         7.8780    -1.0550    -0.5640 hc         1 DUQ       0.066700
     47 H34          5.0150    -3.9120     0.0520 hn         1 DUQ       0.325500
     48 H391         4.1440    -3.8620    -2.6650 h1         1 DUQ       0.064700
     49 H392         5.8030    -4.4750    -2.6130 h1         1 DUQ       0.064700
     50 H401         4.2320    -6.3510    -2.4820 h1         1 DUQ       0.031200
     51 H402         5.0830    -6.1830    -0.9400 h1         1 DUQ       0.031200
     52 H37          2.6710    -6.3950    -0.9040 ho         1 DUQ       0.408000
     53 H5'1         7.4080    -3.2350     1.4990 h1         1 DUQ       0.040700
     54 H5'2         7.7310    -3.4660    -0.2250 h1         1 DUQ       0.040700
     55 H31          8.7800    -2.8660     3.1890 ha         1 DUQ       0.143500
     56 H35          9.8510    -6.7250     1.7050 ha         1 DUQ       0.143500
     57 H32          7.8890    -3.9010     5.2410 ha         1 DUQ       0.130833
     58 H33          7.9830    -6.3480     5.5280 ha         1 DUQ       0.130000
     59 HA           8.9620    -7.7610     3.7600 ha         1 DUQ       0.130833
     60 H25          7.6930    -5.5820     0.6750 ha         1 DUQ       0.143500
     61 H29         11.4060    -4.5190    -1.1460 ha         1 DUQ       0.143500
     62 H26          7.1480    -7.0020    -1.2660 ha         1 DUQ       0.130833
     63 H27          8.7340    -7.1830    -3.1450 ha         1 DUQ       0.130000
     64 H28         10.8630    -5.9400    -3.0860 ha         1 DUQ       0.130833
     65 H19         11.4510    -2.0050     0.3160 ha         1 DUQ       0.143500
     66 H23         11.6740    -5.8860     2.0840 ha         1 DUQ       0.143500
     67 H20         13.8980    -1.7780     0.5060 ha         1 DUQ       0.130833
     68 H21         15.2340    -3.6060     1.4810 ha         1 DUQ       0.130000
     69 H22         14.1210    -5.6590     2.2720 ha         1 DUQ       0.130833
@<TRIPOS>BOND
     1     1     2 2
     2     2     3 1
     3     2     6 1
     4     3     4 1
     5     4     5 2
     6     4     8 1
     7     6     7 2
     8     7     8 1
     9     8     9 1
    10     9    10 1
    11    10    11 1
    12    10    17 1
    13    11    12 1
    14    11    16 2
    15    12    13 1
    16    13    14 1
    17    14    15 1
    18    17    18 1
    19    18    19 1
    20    19    20 1
    21    20    21 1
    22    20    27 1
    23    20    33 1
    24    21    22 ar
    25    21    26 ar
    26    22    23 ar
    27    23    24 ar
    28    24    25 ar
    29    25    26 ar
    30    27    28 ar
    31    27    32 ar
    32    28    29 ar
    33    29    30 ar
    34    30    31 ar
    35    31    32 ar
    36    33    34 ar
    37    33    38 ar
    38    34    35 ar
    39    35    36 ar
    40    36    37 ar
    41    37    38 ar
    42     3    39 1
    43     6    40 1
    44     7    41 1
    45     9    42 1
    46     9    43 1
    47    10    44 1
    48    17    45 1
    49    17    46 1
    50    12    47 1
    51    13    48 1
    52    13    49 1
    53    14    50 1
    54    14    51 1
    55    15    52 1
    56    18    53 1
    57    18    54 1
    58    22    55 1
    59    26    56 1
    60    23    57 1
    61    24    58 1
    62    25    59 1
    63    28    60 1
    64    32    61 1
    65    29    62 1
    66    30    63 1
    67    31    64 1
    68    34    65 1
    69    38    66 1
    70    35    67 1
    71    36    68 1
    72    37    69 1
@<TRIPOS>SUBSTRUCTURE
     1 DUQ         1 TEMP              0 ****  ****    0 ROOT
