@<TRIPOS>MOLECULE
DUR
   28    29     1     0     0
SMALL
bcc


@<TRIPOS>ATOM
      1 N1           0.0000     0.0000     0.0000 n          1 DUR       0.037000
      2 C2           1.3440     0.0000     0.0000 c          1 DUR       0.598500
      3 N3           2.0370     0.0000     1.1550 ns         1 DUR      -0.130500
      4 C4           1.3870    -0.0110     2.3360 c          1 DUR       0.613700
      5 C5          -0.0280    -0.0170     2.3500 cc         1 DUR      -0.295200
      6 C6          -0.6970    -0.0110     1.1780 cd         1 DUR      -0.082400
      7 O2           1.9430     0.0100    -1.0580 o          1 DUR      -0.704500
      8 O4           2.0130    -0.0160     3.3810 o          1 DUR      -0.656500
      9 C1'         -0.7260     0.0060    -1.2710 c3         1 DUR       0.238500
     10 C2'         -0.3510     1.2590    -2.0860 c3         1 DUR      -0.101400
     11 C3'          0.2130     0.6940    -3.4150 c3         1 DUR       0.160100
     12 C4'         -0.3840    -0.7350    -3.4380 c3         1 DUR       0.172100
     13 O3'         -0.2440     1.4620    -4.5300 oh         1 DUR      -0.579800
     14 O4'         -0.3520    -1.1400    -2.0530 os         1 DUR      -0.375600
     15 C5'          0.4780    -1.6660    -4.2920 c3         1 DUR       0.223400
     16 O5'         -0.0650    -2.9860    -4.2570 oh         1 DUR      -0.585800
     17 HN3          3.0370     0.0020     1.1360 hn         1 DUR       0.206500
     18 H5          -0.5670    -0.0260     3.2900 ha         1 DUR       0.150000
     19 H6          -1.7800    -0.0130     1.1690 h4         1 DUR       0.132000
     20 H1'         -1.7940    -0.0080    -1.0900 h2         1 DUR       0.032700
     21 H2'1         0.4070     1.8330    -1.5680 hc         1 DUR       0.041700
     22 H2'2        -1.2310     1.8620    -2.2760 hc         1 DUR       0.041700
     23 H3'          1.2950     0.6540    -3.3830 h1         1 DUR       0.043700
     24 H4'         -1.4040    -0.7120    -3.8010 h1         1 DUR       0.035700
     25 HO3'         0.4400     2.0480    -4.8080 ho         1 DUR       0.395000
     26 H5'1         0.4910    -1.3090    -5.3150 h1         1 DUR      -0.001300
     27 H5'2         1.4880    -1.6810    -3.9020 h1         1 DUR      -0.001300
     28 HO5'         0.4290    -3.5450    -4.8330 ho         1 DUR       0.390000
@<TRIPOS>BOND
     1     1     2 1   
     2     1     6 1   
     3     1     9 1   
     4     2     3 1   
     5     2     7 2   
     6     3     4 1   
     7     3    17 1   
     8     4     5 1   
     9     4     8 2   
    10     5     6 2   
    11     5    18 1   
    12     6    19 1   
    13     9    10 1   
    14     9    14 1   
    15     9    20 1   
    16    10    11 1   
    17    10    21 1   
    18    10    22 1   
    19    11    12 1   
    20    11    13 1   
    21    11    23 1   
    22    12    14 1   
    23    12    15 1   
    24    12    24 1   
    25    13    25 1   
    26    15    16 1   
    27    15    26 1   
    28    15    27 1   
    29    16    28 1   
@<TRIPOS>SUBSTRUCTURE
     1 DUR         1 TEMP              0 ****  ****    0 ROOT
