@<TRIPOS>MOLECULE
molecule
   31    32     1     0     0
SMALL
bcc


@<TRIPOS>ATOM
      1 O7           0.0000     0.0000     0.0000 o          1 DUS      -0.736533
      2 S            1.4210     0.0000     0.0000 s6         1 DUS       1.564300
      3 O5           2.1980     0.0000     1.1890 o          1 DUS      -0.736533
      4 O6           1.8500    -1.2250    -0.7940 o          1 DUS      -0.736533
      5 O4           1.8500     1.2260    -0.7940 os         1 DUS      -0.597500
      6 C8           1.0350     1.4930    -1.9360 c3         1 DUS       0.193400
      7 C7           1.5560     2.7400    -2.6550 c3         1 DUS       0.137100
      8 C            0.6380     3.0990    -3.8430 c3         1 DUS       0.114100
      9 O           -0.2750     4.1360    -3.4760 oh         1 DUS      -0.605800
     10 O3           2.8460     2.4770    -3.2470 os         1 DUS      -0.365600
     11 C2           3.0070     3.4820    -4.2720 c3         1 DUS       0.310500
     12 C1           1.6130     3.5980    -4.9330 c3         1 DUS      -0.149400
     13 N            4.0070     3.0560    -5.2530 n          1 DUS      -0.357000
     14 C6           5.0610     3.8770    -5.5470 cc         1 DUS       0.052600
     15 C5           5.9840     3.4830    -6.4510 cd         1 DUS      -0.345200
     16 C4           5.8400     2.2220    -7.0780 c          1 DUS       0.709700
     17 O1           6.6590     1.8450    -7.8960 o          1 DUS      -0.640500
     18 N1           4.7870     1.4420    -6.7600 ns         1 DUS      -0.563500
     19 C3           3.8850     1.8570    -5.8520 c          1 DUS       0.806500
     20 O2           2.9410     1.1420    -5.5750 o          1 DUS      -0.615500
     21 H1           1.0700     0.6460    -2.6110 h1         1 DUS       0.067200
     22 H2           0.0120     1.6600    -1.6190 h1         1 DUS       0.067200
     23 H3           1.6230     3.5760    -1.9690 h1         1 DUS       0.069700
     24 H4           0.1050     2.2200    -4.1870 h1         1 DUS       0.065700
     25 H5          -1.1150     3.9690    -3.8710 ho         1 DUS       0.402000
     26 H6           3.2880     4.4280    -3.8260 h2         1 DUS       0.065700
     27 H7           1.3990     4.6290    -5.1880 hc         1 DUS       0.066700
     28 H8           1.5560     2.9630    -5.8090 hc         1 DUS       0.066700
     29 H9           5.1560     4.8390    -5.0570 h4         1 DUS       0.159000
     30 H10          6.8230     4.1240    -6.6930 ha         1 DUS       0.170000
     31 H11          4.6790     0.5480    -7.1980 hn         1 DUS       0.361500
@<TRIPOS>BOND
     1    17    16 2
     2    20    19 2
     3    18    19 1
     4    18    16 1
     5    19    13 1
     6    16    15 1
     7     1     2 1
     8    12    11 1
     9    12     8 1
    10    13    11 1
    11    13    14 1
    12    15    14 2
    13     2     5 1
    14     2     3 1
    15     2     4 1
    16    11    10 1
    17     8     9 1
    18     8     7 1
    19     5     6 1
    20    10     7 1
    21     7     6 1
    22     6    21 1
    23     6    22 1
    24     7    23 1
    25     8    24 1
    26     9    25 1
    27    11    26 1
    28    12    27 1
    29    12    28 1
    30    14    29 1
    31    15    30 1
    32    18    31 1
@<TRIPOS>SUBSTRUCTURE
     1 DUS         1 TEMP              0 ****  ****    0 ROOT
