@<TRIPOS>MOLECULE
molecule
   20    19     1     0     0
SMALL
bcc


@<TRIPOS>ATOM
      1 O1           0.0000     0.0000     0.0000 o          1 DUV      -0.838300
      2 C2           1.2080     0.0000     0.0000 c          1 DUV       0.899600
      3 O3           1.8800     0.0050    -1.1620 o          1 DUV      -0.838300
      4 C4           1.9620     0.0000     1.3050 c3         1 DUV      -0.267700
      5 C5           0.9680    -0.0000     2.4680 c3         1 DUV      -0.195400
      6 C6           1.7300    -0.1260     3.7890 c3         1 DUV      -0.041400
      7 C7           0.7350    -0.1250     4.9520 c3         1 DUV      -0.078300
      8 C8           1.4670    -0.2470     6.2230 c1         1 DUV      -0.096100
      9 C9           2.0340    -0.3450     7.2470 c1         1 DUV      -0.196500
     10 C10          2.8290     1.2300     1.3850 c          1 DUV       0.625900
     11 O11          4.0260     1.1190     1.4950 o          1 DUV      -0.575100
     12 H2           2.5850    -0.8850     1.3620 hc         1 DUV       0.077700
     13 H3           1.0790     0.7910     3.1990 hc         1 DUV       0.104700
     14 H4          -0.0410    -0.1070     2.0880 hc         1 DUV       0.104700
     15 H5           2.2600     0.8080     3.9290 hc         1 DUV       0.020700
     16 H6           2.3360    -0.9850     4.0480 hc         1 DUV       0.020700
     17 H7           0.2000     0.7980     4.7700 hc         1 DUV       0.085200
     18 H8           0.3490    -1.0460     4.5310 hc         1 DUV       0.085200
     19 H9           2.7960    -0.5000     8.0020 ha         1 DUV       0.155500
     20 H10          2.4470     1.9870     2.0590 h4         1 DUV      -0.053800
@<TRIPOS>BOND
     1     9     8 3
     2     8     7 1
     3     7     6 1
     4     1     2 1
     5     6     5 1
     6     3     2 1
     7     2     4 1
     8     5     4 1
     9     4    10 1
    10    10    11 2
    11     4    12 1
    12     5    13 1
    13     5    14 1
    14     6    15 1
    15     6    16 1
    16     7    17 1
    17     7    18 1
    18     9    19 1
    19    10    20 1
@<TRIPOS>SUBSTRUCTURE
     1 DUV         1 TEMP              0 ****  ****    0 ROOT
