@<TRIPOS>MOLECULE
molecule
   22    22     1     0     0
SMALL
bcc


@<TRIPOS>ATOM
      1 O1           0.0000     0.0000     0.0000 o          1 DUW      -0.835300
      2 C2           1.2080     0.0000     0.0000 c          1 DUW       0.895600
      3 O3           1.8800     0.0060    -1.1620 o          1 DUW      -0.835300
      4 C4           1.9600     0.0000     1.3060 c3         1 DUW      -0.286700
      5 C5           0.9660    -0.0010     2.4690 c3         1 DUW      -0.016100
      6 C6           1.7140    -0.1250     3.7700 ca         1 DUW      -0.063300
      7 C7           1.9840    -1.3750     4.2960 ca         1 DUW      -0.127500
      8 C8           2.6750    -1.4890     5.4870 ca         1 DUW      -0.131500
      9 C9           3.0970    -0.3540     6.1540 ca         1 DUW      -0.151000
     10 C10          2.8280     0.8960     5.6270 ca         1 DUW      -0.131500
     11 C11          2.1360     1.0110     4.4360 ca         1 DUW      -0.127500
     12 C12          2.8260     1.2310     1.3870 c          1 DUW       0.611900
     13 O13          4.0240     1.1200     1.4980 o          1 DUW      -0.571100
     14 H2           2.5830    -0.8840     1.3630 hc         1 DUW       0.072700
     15 H3           0.2870    -0.8380     2.3620 hc         1 DUW       0.059700
     16 H4           0.4020     0.9240     2.4630 hc         1 DUW       0.059700
     17 H5           1.6530    -2.2650     3.7740 ha         1 DUW       0.130000
     18 H6           2.8850    -2.4680     5.8990 ha         1 DUW       0.114500
     19 H7           3.6390    -0.4430     7.0870 ha         1 DUW       0.112000
     20 H8           3.1590     1.7860     6.1490 ha         1 DUW       0.114500
     21 H9           1.9260     1.9900     4.0230 ha         1 DUW       0.130000
     22 H10          2.3790     2.2130     1.2990 h4         1 DUW      -0.024800
@<TRIPOS>BOND
     1     8     9 ar
     2     8     7 ar
     3     9    10 ar
     4     7     6 ar
     5    10    11 ar
     6     1     2 1
     7     3     2 1
     8     2     4 1
     9     6    11 ar
    10     6     5 1
    11     4     5 1
    12     4    12 1
    13    12    13 2
    14     4    14 1
    15     5    15 1
    16     5    16 1
    17     7    17 1
    18     8    18 1
    19     9    19 1
    20    10    20 1
    21    11    21 1
    22    12    22 1
@<TRIPOS>SUBSTRUCTURE
     1 DUW         1 TEMP              0 ****  ****    0 ROOT
