@<TRIPOS>MOLECULE
molecule
   60    64     1     0     0
SMALL
bcc


@<TRIPOS>ATOM
      1 F3'          0.0000     0.0000     0.0000 f          1 DUX      -0.239300
      2 C3'          1.3990     0.0000     0.0000 c3         1 DUX       0.138600
      3 C2'          1.9410     0.0000     1.4490 c3         1 DUX      -0.154400
      4 C1'          2.2490    -1.5010     1.6810 c3         1 DUX       0.314500
      5 N1           3.2690    -1.6640     2.7190 n          1 DUX      -0.362000
      6 C2           4.4880    -1.1240     2.5450 c          1 DUX       0.812500
      7 N3           5.4420    -1.2560     3.4840 ns         1 DUX      -0.561500
      8 C4           5.1930    -1.9430     4.6170 c          1 DUX       0.703700
      9 C5           3.9160    -2.5210     4.8100 cc         1 DUX      -0.321200
     10 C6           2.9750    -2.3710     3.8540 cd         1 DUX       0.038600
     11 O4           6.0580    -2.0670     5.4650 o          1 DUX      -0.617500
     12 O2           4.7280    -0.5010     1.5290 o          1 DUX      -0.638500
     13 O4'          2.7460    -1.9440     0.4000 os         1 DUX      -0.382600
     14 C4'          1.9380    -1.3080    -0.6100 c3         1 DUX       0.118100
     15 C5'          2.7920    -1.0030    -1.8410 c3         1 DUX       0.109400
     16 O5'          3.2990    -2.2250    -2.3830 os         1 DUX      -0.376600
     17 C17          3.9940    -1.8860    -3.5850 c3         1 DUX       0.287700
     18 C30          3.0150    -1.3610    -4.6020 ca         1 DUX      -0.102300
     19 C31          1.6740    -1.6780    -4.4980 ca         1 DUX      -0.111000
     20 C32          0.7760    -1.1960    -5.4310 ca         1 DUX      -0.132667
     21 C33          1.2190    -0.3970    -6.4690 ca         1 DUX      -0.122000
     22 C34          2.5600    -0.0810    -6.5720 ca         1 DUX      -0.132667
     23 C35          3.4580    -0.5590    -5.6360 ca         1 DUX      -0.111000
     24 C24          5.0240    -0.8280    -3.2850 ca         1 DUX      -0.102300
     25 C25          6.3260    -1.1930    -3.0000 ca         1 DUX      -0.111000
     26 C26          7.2720    -0.2220    -2.7260 ca         1 DUX      -0.132667
     27 C27          6.9150     1.1140    -2.7390 ca         1 DUX      -0.122000
     28 C28          5.6130     1.4780    -3.0260 ca         1 DUX      -0.132667
     29 C29          4.6700     0.5070    -3.3030 ca         1 DUX      -0.111000
     30 C18          4.6770    -3.1120    -4.1310 ca         1 DUX      -0.102300
     31 C19          4.8710    -4.2150    -3.3210 ca         1 DUX      -0.111000
     32 C20          5.4970    -5.3410    -3.8230 ca         1 DUX      -0.132667
     33 C21          5.9310    -5.3630    -5.1350 ca         1 DUX      -0.122000
     34 C22          5.7370    -4.2600    -5.9460 ca         1 DUX      -0.132667
     35 C23          5.1060    -3.1370    -5.4450 ca         1 DUX      -0.111000
     36 H3'          1.7820     0.8540    -0.5440 h1         1 DUX       0.079700
     37 H2'1         2.8440     0.5930     1.5210 hc         1 DUX       0.088700
     38 H2'2         1.1850     0.3490     2.1420 hc         1 DUX       0.088700
     39 H1'          1.3430    -2.0360     1.9410 h2         1 DUX       0.075700
     40 H3           6.3440    -0.8450     3.3390 hn         1 DUX       0.364500
     41 H5           3.6960    -3.0780     5.7130 ha         1 DUX       0.180000
     42 H6           1.9910    -2.8060     3.9840 h4         1 DUX       0.164000
     43 H4'          1.1120    -1.9550    -0.8790 h1         1 DUX       0.071700
     44 H5'1         2.1860    -0.5010    -2.5850 h1         1 DUX       0.060700
     45 H5'2         3.6190    -0.3630    -1.5570 h1         1 DUX       0.060700
     46 H31          1.3270    -2.3040    -3.6850 ha         1 DUX       0.143333
     47 H32         -0.2750    -1.4440    -5.3500 ha         1 DUX       0.130833
     48 H33          0.5160    -0.0200    -7.2020 ha         1 DUX       0.129000
     49 H34          2.9070     0.5470    -7.3840 ha         1 DUX       0.130833
     50 H35          4.5090    -0.3110    -5.7180 ha         1 DUX       0.143333
     51 H25          6.6060    -2.2390    -2.9900 ha         1 DUX       0.143333
     52 H26          8.2920    -0.5070    -2.5010 ha         1 DUX       0.130833
     53 H27          7.6550     1.8740    -2.5220 ha         1 DUX       0.129000
     54 H28          5.3330     2.5240    -3.0390 ha         1 DUX       0.130833
     55 H29          3.6490     0.7920    -3.5290 ha         1 DUX       0.143333
     56 H19          4.5320    -4.1980    -2.2920 ha         1 DUX       0.143333
     57 H20          5.6490    -6.2050    -3.1870 ha         1 DUX       0.130833
     58 H21          6.4240    -6.2450    -5.5280 ha         1 DUX       0.129000
     59 H22          6.0750    -4.2790    -6.9750 ha         1 DUX       0.130833
     60 H23          4.9540    -2.2720    -6.0800 ha         1 DUX       0.143333
@<TRIPOS>BOND
     1     1     2 1
     2     2     3 1
     3     2    14 1
     4     2    36 1
     5     3     4 1
     6     3    37 1
     7     3    38 1
     8     4     5 1
     9     4    13 1
    10     4    39 1
    11     5     6 1
    12     5    10 1
    13     6     7 1
    14     6    12 2
    15     7     8 1
    16     7    40 1
    17     8     9 1
    18     8    11 2
    19     9    10 2
    20     9    41 1
    21    10    42 1
    22    13    14 1
    23    14    15 1
    24    14    43 1
    25    15    16 1
    26    15    44 1
    27    15    45 1
    28    16    17 1
    29    17    18 1
    30    17    24 1
    31    17    30 1
    32    18    19 ar
    33    18    23 ar
    34    19    20 ar
    35    19    46 1
    36    20    21 ar
    37    20    47 1
    38    21    22 ar
    39    21    48 1
    40    22    23 ar
    41    22    49 1
    42    23    50 1
    43    24    25 ar
    44    24    29 ar
    45    25    26 ar
    46    25    51 1
    47    26    27 ar
    48    26    52 1
    49    27    28 ar
    50    27    53 1
    51    28    29 ar
    52    28    54 1
    53    29    55 1
    54    30    31 ar
    55    30    35 ar
    56    31    32 ar
    57    31    56 1
    58    32    33 ar
    59    32    57 1
    60    33    34 ar
    61    33    58 1
    62    34    35 ar
    63    34    59 1
    64    35    60 1
@<TRIPOS>SUBSTRUCTURE
     1 DUX         1 TEMP              0 ****  ****    0 ROOT
