@<TRIPOS>MOLECULE
DUY
   78    81     1     0     0
SMALL
bcc


@<TRIPOS>ATOM
      1 C1           0.0000     0.0000     0.0000 c          1 DUY       0.581100
      2 C2           1.5080     0.0000     0.0000 c3         1 DUY      -0.036300
      3 C3           1.7860     1.5750    -1.9300 c          1 DUY       0.723100
      4 O4          -4.3560    -6.2600     4.1230 o          1 DUY      -0.881800
      5 C5           2.6860     4.3740    -4.1580 c3         1 DUY      -0.030767
      6 C6           0.5100     3.1560    -4.0000 c3         1 DUY      -0.030767
      7 O6          -1.4800    -4.2670     1.7190 o          1 DUY      -0.666100
      8 C7           2.5760     1.9370    -4.6970 c3         1 DUY      -0.030767
      9 C8           2.7930     1.9900     0.3330 c3         1 DUY       0.046000
     10 C9           3.2650     0.9390     1.3740 c3         1 DUY      -0.035400
     11 C10          2.0330     0.0000     1.4510 c3         1 DUY      -0.026400
     12 C15         -3.9910    -4.2730     2.7040 c3         1 DUY      -0.102300
     13 C16         -5.3540    -3.6580     3.0220 c3         1 DUY      -0.026700
     14 C17         -6.4820    -4.4250     2.2890 c3         1 DUY      -0.060900
     15 C18         -7.7290    -4.1100     3.1510 c3         1 DUY      -0.019400
     16 C19         -7.1990    -4.1210     4.6000 c3         1 DUY      -0.019400
     17 C20         -5.6890    -3.8330     4.5180 c3         1 DUY      -0.060900
     18 C21         -4.0520    -5.7640     2.9140 c          1 DUY       0.982600
     19 OH          -0.6060     1.0340    -0.1820 o          1 DUY      -0.660100
     20 N            2.0080     1.2200    -0.6500 n          1 DUY      -0.111800
     21 O            2.3010     2.7240    -2.4090 os         1 DUY      -0.420900
     22 C            2.0220     3.0430    -3.7970 c3         1 DUY       0.196800
     23 O3           1.1200     0.8610    -2.6530 o          1 DUY      -0.658000
     24 N2          -0.6730    -1.1500     0.1970 n          1 DUY      -0.125800
     25 CE1         -2.1430    -1.1660     0.2000 c3         1 DUY       0.021500
     26 CD1         -2.6270    -2.2150    -0.8040 c3         1 DUY      -0.027400
     27 CG          -1.9840    -3.5640    -0.4760 c3         1 DUY      -0.087700
     28 CB          -2.3490    -3.9660     0.9300 c          1 DUY       0.573100
     29 N3          -3.6420    -3.9910     1.3090 ns         1 DUY      -0.120900
     30 O5          -3.8270    -6.5140     1.9930 o          1 DUY      -0.881800
     31 CD2         -2.4840    -4.6070    -1.4430 ca         1 DUY      -0.036300
     32 CE2         -2.1220    -5.9320    -1.2780 ca         1 DUY      -0.084500
     33 C24         -2.5800    -6.8890    -2.1630 ca         1 DUY      -0.101500
     34 C25         -3.4020    -6.5220    -3.2140 ca         1 DUY       0.044100
     35 Br1         -4.0310    -7.8300    -4.4260 br         1 DUY      -0.171100
     36 C26         -3.7640    -5.1960    -3.3780 ca         1 DUY      -0.101500
     37 C27         -3.3090    -4.2410    -2.4900 ca         1 DUY      -0.084500
     38 C28         -0.4620    -3.4490    -0.5950 c3         1 DUY      -0.027400
     39 C29          0.0470    -2.4130     0.4070 c3         1 DUY       0.021500
     40 H1           1.8800    -0.8720    -0.5240 h1         1 DUY       0.051700
     41 H3           3.7550     4.3000    -3.9990 hc         1 DUY       0.018033
     42 H4           2.4910     4.6050    -5.1980 hc         1 DUY       0.018033
     43 H5           2.2820     5.1610    -3.5320 hc         1 DUY       0.018033
     44 H6           0.0700     3.6720    -3.1550 hc         1 DUY       0.018033
     45 H7           0.0810     2.1650    -4.0820 hc         1 DUY       0.018033
     46 H8           0.3080     3.7130    -4.9070 hc         1 DUY       0.018033
     47 H9           3.5350     1.6080    -4.3160 hc         1 DUY       0.018033
     48 H10          2.6990     2.3180    -5.7040 hc         1 DUY       0.018033
     49 H11          1.8870     1.1020    -4.7100 hc         1 DUY       0.018033
     50 H12          3.6470     2.4530    -0.1480 h1         1 DUY       0.022700
     51 H13          2.1690     2.7370     0.8090 h1         1 DUY       0.022700
     52 H14          4.1360     0.4040     1.0140 hc         1 DUY       0.022700
     53 H15          3.4560     1.4050     2.3330 hc         1 DUY       0.022700
     54 H16          1.2880     0.4030     2.1260 hc         1 DUY       0.034700
     55 H17          2.3310    -0.9980     1.7480 hc         1 DUY       0.034700
     56 H18         -3.2400    -3.8460     3.3570 h1         1 DUY       0.053700
     57 H19         -5.3760    -2.6090     2.7520 hc         1 DUY      -0.004300
     58 H20         -6.6090    -4.0470     1.2820 hc         1 DUY       0.041700
     59 H21         -6.2790    -5.4890     2.2840 hc         1 DUY       0.041700
     60 H22         -8.1240    -3.1330     2.9010 hc         1 DUY      -0.001300
     61 H23         -8.4830    -4.8770     3.0190 hc         1 DUY      -0.001300
     62 H24         -7.6920    -3.3500     5.1790 hc         1 DUY      -0.001300
     63 H25         -7.3660    -5.0940     5.0470 hc         1 DUY      -0.001300
     64 H26         -5.4570    -2.9230     5.0580 hc         1 DUY       0.041700
     65 H27         -5.1310    -4.6670     4.9260 hc         1 DUY       0.041700
     66 H28         -2.5000    -1.4200     1.1910 h1         1 DUY       0.045450
     67 H29         -2.5160    -0.1900    -0.0870 h1         1 DUY       0.045450
     68 H30         -3.7040    -2.3050    -0.7410 hc         1 DUY       0.029200
     69 H31         -2.3420    -1.9140    -1.8050 hc         1 DUY       0.029200
     70 H32         -4.3650    -3.8530     0.6300 hn         1 DUY       0.165500
     71 H33         -1.4540    -6.2140    -0.4740 ha         1 DUY       0.132500
     72 H34         -2.2780    -7.9230    -2.0480 ha         1 DUY       0.112500
     73 H35         -4.3760    -4.9020    -4.2230 ha         1 DUY       0.112500
     74 H36         -3.7610    -3.4030    -3.0060 ha         1 DUY       0.132500
     75 H37         -0.2020    -3.1360    -1.5990 hc         1 DUY       0.029200
     76 H38         -0.0100    -4.4100    -0.3810 hc         1 DUY       0.029200
     77 H39         -0.1320    -2.7680     1.4150 h1         1 DUY       0.045450
     78 H40          1.1070    -2.2550     0.2560 h1         1 DUY       0.045450
@<TRIPOS>BOND
     1     1     2 1   
     2     1    19 2   
     3     1    24 1   
     4     2    11 1   
     5     2    20 1   
     6     2    40 1   
     7     3    20 1   
     8     3    21 1   
     9     3    23 2   
    10     4    18 1   
    11     5    22 1   
    12     5    41 1   
    13     5    42 1   
    14     5    43 1   
    15     6    22 1   
    16     6    44 1   
    17     6    45 1   
    18     6    46 1   
    19     7    28 2   
    20     8    22 1   
    21     8    47 1   
    22     8    48 1   
    23     8    49 1   
    24     9    10 1   
    25     9    20 1   
    26     9    50 1   
    27     9    51 1   
    28    10    11 1   
    29    10    52 1   
    30    10    53 1   
    31    11    54 1   
    32    11    55 1   
    33    12    13 1   
    34    12    18 1   
    35    12    29 1   
    36    12    56 1   
    37    13    14 1   
    38    13    17 1   
    39    13    57 1   
    40    14    15 1   
    41    14    58 1   
    42    14    59 1   
    43    15    16 1   
    44    15    60 1   
    45    15    61 1   
    46    16    17 1   
    47    16    62 1   
    48    16    63 1   
    49    17    64 1   
    50    17    65 1   
    51    18    30 1   
    52    21    22 1   
    53    24    25 1   
    54    24    39 1   
    55    25    26 1   
    56    25    66 1   
    57    25    67 1   
    58    26    27 1   
    59    26    68 1   
    60    26    69 1   
    61    27    28 1   
    62    27    31 1   
    63    27    38 1   
    64    28    29 1   
    65    29    70 1   
    66    31    32 ar  
    67    31    37 ar  
    68    32    33 ar  
    69    32    71 1   
    70    33    34 ar  
    71    33    72 1   
    72    34    35 1   
    73    34    36 ar  
    74    36    37 ar  
    75    36    73 1   
    76    37    74 1   
    77    38    39 1   
    78    38    75 1   
    79    38    76 1   
    80    39    77 1   
    81    39    78 1   
@<TRIPOS>SUBSTRUCTURE
     1 DUY         1 TEMP              0 ****  ****    0 ROOT
