@<TRIPOS>MOLECULE
molecule
   33    34     1     0     0
SMALL
bcc


@<TRIPOS>ATOM
      1 O1           0.0000     0.0000     0.0000 oh         1 DV1      -0.600800
      2 C1           1.4300     0.0000     0.0000 c3         1 DV1       0.136100
      3 C2           1.9250     0.0000     1.4410 c3         1 DV1       0.107100
      4 O2           1.5110     1.2010     2.0930 oh         1 DV1      -0.599800
      5 C3           1.9220    -1.2110    -0.7750 c3         1 DV1       0.098500
      6 C4           3.3370    -1.6470    -0.4220 c3         1 DV1       0.251200
      7 O3           3.8210    -1.3290     0.8500 os         1 DV1      -0.363600
      8 C5           3.4580    -0.0760     1.4190 c3         1 DV1       0.141100
      9 C6           4.0020     0.0240     2.8440 c3         1 DV1       0.153400
     10 O4           5.4300     0.0700     2.8070 oh         1 DV1      -0.598800
     11 N1           1.8540    -0.9190    -2.2050 n2         1 DV1      -0.727900
     12 C7           2.9530    -0.7400    -2.8620 c2         1 DV1       0.720100
     13 S1           4.3220    -0.8570    -1.7390 ss         1 DV1      -0.399300
     14 N2           3.0460    -0.4990    -4.2130 nu         1 DV1      -0.852200
     15 C8           4.3580    -0.3150    -4.8350 c3         1 DV1       0.269000
     16 C9           4.1850    -0.0670    -6.3120 c2         1 DV1      -0.203200
     17 C10          4.7010     1.0040    -6.8620 c2         1 DV1      -0.190000
     18 H1          -0.3140     0.7170    -0.5260 ho         1 DV1       0.415000
     19 H2           1.7850     0.8970    -0.4910 h1         1 DV1       0.060700
     20 H3           1.5260    -0.8620     1.9630 h1         1 DV1       0.057700
     21 H4           0.7660     1.0190     2.6420 ho         1 DV1       0.415000
     22 H5           1.2540    -2.0380    -0.5670 h1         1 DV1       0.099700
     23 H6           3.4020    -2.7220    -0.5470 h2         1 DV1       0.108700
     24 H7           3.8540     0.7300     0.8120 h1         1 DV1       0.078700
     25 H8           3.6830    -0.8410     3.4130 h1         1 DV1       0.039200
     26 H9           3.6240     0.9240     3.3130 h1         1 DV1       0.039200
     27 H10          5.7580     0.3320     3.6510 ho         1 DV1       0.403000
     28 H11          2.2160    -0.4520    -4.7710 hn         1 DV1       0.459800
     29 H12          4.9570    -1.2050    -4.6860 h1         1 DV1       0.056200
     30 H13          4.8560     0.5350    -4.3830 h1         1 DV1       0.056200
     31 H14          3.6330    -0.7750    -6.9180 ha         1 DV1       0.132000
     32 H15          4.5760     1.1810    -7.9230 ha         1 DV1       0.119000
     33 H16          5.2530     1.7120    -6.2550 ha         1 DV1       0.119000
@<TRIPOS>BOND
     1     1     2 1
     2     2     3 1
     3     2     5 1
     4     3     4 1
     5     3     8 1
     6     5     6 1
     7     5    11 1
     8     6     7 1
     9     6    13 1
    10     7     8 1
    11     8     9 1
    12     9    10 1
    13    11    12 2
    14    12    13 1
    15    12    14 1
    16    14    15 1
    17    15    16 1
    18    16    17 2
    19     1    18 1
    20     2    19 1
    21     3    20 1
    22     4    21 1
    23     5    22 1
    24     6    23 1
    25     8    24 1
    26     9    25 1
    27     9    26 1
    28    10    27 1
    29    14    28 1
    30    15    29 1
    31    15    30 1
    32    16    31 1
    33    17    32 1
    34    17    33 1
@<TRIPOS>SUBSTRUCTURE
     1 DV1         1 TEMP              0 ****  ****    0 ROOT
