@<TRIPOS>MOLECULE
molecule
   56    58     1     0     0
SMALL
bcc


@<TRIPOS>ATOM
      1 CAA          0.0000     0.0000     0.0000 c3         1 DV2      -0.169100
      2 CAT          1.5070     0.0000     0.0000 c          1 DV2       0.659100
      3 OAD          2.1140     0.0000     1.0500 o          1 DV2      -0.622100
      4 N            2.1810     0.0010    -1.1670 ns         1 DV2      -0.570900
      5 CA           3.6460     0.0020    -1.1670 c3         1 DV2       0.053700
      6 CB           4.1560    -1.4350    -1.0430 c3         1 DV2      -0.111100
      7 C            4.1480     0.6040    -2.4540 c          1 DV2       0.694100
      8 O            3.3610     0.9940    -3.2900 o          1 DV2      -0.595100
      9 NBD          5.4740     0.7080    -2.6780 n          1 DV2      -0.469800
     10 CAO          6.5370     0.2700    -1.7560 c3         1 DV2       0.088000
     11 CBA          7.7700     1.1260    -2.1360 c3         1 DV2       0.129100
     12 OAF          7.6960     2.4250    -1.5450 oh         1 DV2      -0.589800
     13 CAN          7.6260     1.2090    -3.6790 c3         1 DV2      -0.107400
     14 CBC          6.0970     1.2720    -3.8830 c3         1 DV2       0.082700
     15 CAV          5.7050     0.4600    -5.0910 cs         1 DV2       0.381400
     16 SAG          4.7410    -0.8060    -4.9250 s          1 DV2      -0.498400
     17 NAQ          6.1670     0.8000    -6.3110 ns         1 DV2      -0.488900
     18 CAM          5.7850     0.0120    -7.4840 c3         1 DV2       0.149300
     19 CAX          6.4290     0.5960    -8.7140 ca         1 DV2      -0.123300
     20 CAI          7.6800     0.1570    -9.1120 ca         1 DV2      -0.110500
     21 CAK          8.2750     0.6900   -10.2370 ca         1 DV2      -0.117000
     22 CAH          5.7660     1.5670    -9.4440 ca         1 DV2      -0.110500
     23 CAJ          6.3500     2.1070   -10.5720 ca         1 DV2      -0.117000
     24 CAY          7.6130     1.6720   -10.9750 ca         1 DV2       0.008000
     25 CAZ          8.2460     2.2470   -12.1820 cc         1 DV2      -0.109400
     26 SAS          7.4740     2.4780   -13.7480 ss         1 DV2      -0.193300
     27 CAL          8.9210     3.1380   -14.3750 cc         1 DV2       0.441300
     28 NAP          9.8380     3.1550   -13.4660 nd         1 DV2      -0.675000
     29 CAW          9.5170     2.6940   -12.2780 cd         1 DV2       0.383600
     30 CAB         10.4850     2.6610   -11.1240 c3         1 DV2      -0.117400
     31 H1          -0.3610     0.0610     1.0200 hc         1 DV2       0.061033
     32 H2          -0.3610     0.8520    -0.5630 hc         1 DV2       0.061033
     33 H3          -0.3610    -0.9140    -0.4560 hc         1 DV2       0.061033
     34 H4           1.6810    -0.0110    -2.0340 hn         1 DV2       0.337500
     35 H5           4.0070     0.5870    -0.3300 h1         1 DV2       0.091700
     36 H6           3.3280    -2.0930    -0.8070 hc         1 DV2       0.050700
     37 H7           4.6050    -1.7410    -1.9800 hc         1 DV2       0.050700
     38 H8           4.8950    -1.4890    -0.2530 hc         1 DV2       0.050700
     39 H9           6.7510    -0.7820    -1.9020 h1         1 DV2       0.063200
     40 H10          6.2480     0.4630    -0.7300 h1         1 DV2       0.063200
     41 H11          8.6890     0.6200    -1.8630 h1         1 DV2       0.050700
     42 H12          8.4910     2.5990    -1.0690 ho         1 DV2       0.406000
     43 H13          8.0980     2.1080    -4.0590 hc         1 DV2       0.066200
     44 H14          8.0380     0.3240    -4.1490 hc         1 DV2       0.066200
     45 H15          5.7860     2.3020    -4.0090 h1         1 DV2       0.088700
     46 H16          6.7300     1.6200    -6.4210 hn         1 DV2       0.314500
     47 H17          6.1160    -1.0120    -7.3550 h1         1 DV2       0.077700
     48 H18          4.7080     0.0310    -7.5970 h1         1 DV2       0.077700
     49 H19          8.1930    -0.6050    -8.5390 ha         1 DV2       0.139500
     50 H20          9.2550     0.3480   -10.5460 ha         1 DV2       0.142000
     51 H21          4.7850     1.9030    -9.1310 ha         1 DV2       0.139500
     52 H22          5.8300     2.8680   -11.1410 ha         1 DV2       0.142000
     53 H23          9.0510     3.4900   -15.3920 h5         1 DV2       0.063100
     54 H24          9.9880     3.0090   -10.2260 hc         1 DV2       0.052367
     55 H25         10.8340     1.6470   -10.9730 hc         1 DV2       0.052367
     56 H26         11.3290     3.3050   -11.3420 hc         1 DV2       0.052367
@<TRIPOS>BOND
     1     1     2 1
     2     2     3 2
     3     2     4 1
     4     4     5 1
     5     6     5 1
     6     5     7 1
     7     7     8 2
     8     7     9 1
     9    10     9 1
    10    10    11 1
    11     9    14 1
    12    12    11 1
    13    11    13 1
    14    14    15 1
    15    14    13 1
    16    16    15 2
    17    15    17 1
    18    17    18 1
    19    18    19 1
    20    19    20 ar
    21    19    22 ar
    22    20    21 ar
    23    22    23 ar
    24    21    24 ar
    25    23    24 ar
    26    24    25 1
    27    25    26 1
    28    25    29 2
    29    26    27 1
    30    29    30 1
    31    29    28 1
    32    27    28 2
    33     1    31 1
    34     1    32 1
    35     1    33 1
    36     4    34 1
    37     5    35 1
    38     6    36 1
    39     6    37 1
    40     6    38 1
    41    10    39 1
    42    10    40 1
    43    11    41 1
    44    12    42 1
    45    13    43 1
    46    13    44 1
    47    14    45 1
    48    17    46 1
    49    18    47 1
    50    18    48 1
    51    20    49 1
    52    21    50 1
    53    22    51 1
    54    23    52 1
    55    27    53 1
    56    30    54 1
    57    30    55 1
    58    30    56 1
@<TRIPOS>SUBSTRUCTURE
     1 DV2         1 TEMP              0 ****  ****    0 ROOT
