@<TRIPOS>MOLECULE
molecule
   22    22     1     0     0
SMALL
bcc


@<TRIPOS>ATOM
      1 O5'          0.0000     0.0000     0.0000 os         1 DV3      -0.533200
      2 P            1.6100     0.0000     0.0000 p5         1 DV3       1.124800
      3 SP3          2.3150     0.0000     1.9990 sh         1 DV3      -0.706200
      4 OP2          2.1030     1.2080    -0.6970 o          1 DV3      -0.727500
      5 OP3          2.1470    -1.3140    -0.7580 o          1 DV3      -0.727500
      6 C2'         -4.0010     1.4200     1.9350 c3         1 DV3      -0.138400
      7 C5'         -0.7780     1.0860     0.5060 c3         1 DV3       0.202400
      8 C4'         -2.2660     0.7620     0.3540 c3         1 DV3       0.124100
      9 O4'         -2.6170    -0.3380     1.2110 os         1 DV3      -0.383600
     10 C1'         -3.9680    -0.1060     1.6640 c3         1 DV3       0.126400
     11 C3'         -3.1140     1.9720     0.7920 c3         1 DV3       0.109100
     12 O3'         -3.9240     2.4330    -0.2910 oh         1 DV3      -0.602800
     13 H1           3.5830    -0.3940     2.0210 hs         1 DV3       0.342800
     14 H5          -0.5460     1.9870    -0.0490 h1         1 DV3       0.035700
     15 H6          -0.5480     1.2380     1.5540 h1         1 DV3       0.035700
     16 H7          -2.4910     0.5110    -0.6760 h1         1 DV3       0.077700
     17 H8          -4.6780    -0.3690     0.8900 h1         1 DV3       0.045200
     18 H9          -4.1630    -0.6570     2.5750 h1         1 DV3       0.045200
     19 H10         -2.4750     2.7660     1.1600 h1         1 DV3       0.044700
     20 H11         -3.8530     3.3710    -0.3600 ho         1 DV3       0.397000
     21 H3          -5.0110     1.8020     1.8550 hc         1 DV3       0.054200
     22 H4          -3.5680     1.6480     2.9010 hc         1 DV3       0.054200
@<TRIPOS>BOND
     1    10     6 1
     2    10     9 1
     3     6    11 1
     4     9     8 1
     5    12    11 1
     6    11     8 1
     7     8     7 1
     8     7     1 1
     9     1     2 1
    10     4     2 1
    11     2     3 1
    12     2     5 1
    13     3    13 1
    14     6    21 1
    15     6    22 1
    16     7    14 1
    17     7    15 1
    18     8    16 1
    19    10    17 1
    20    10    18 1
    21    11    19 1
    22    12    20 1
@<TRIPOS>SUBSTRUCTURE
     1 DV3         1 TEMP              0 ****  ****    0 ROOT
