@<TRIPOS>MOLECULE
molecule
   62    64     1     0     0
SMALL
bcc


@<TRIPOS>ATOM
      1 C15          0.0000     0.0000     0.0000 cc         1 DV4       0.349000
      2 C20         -4.5270     0.0020    -1.8180 c3         1 DV4      -0.086400
      3 C21         -5.4220     0.0020    -3.0590 c3         1 DV4      -0.154400
      4 C22         -6.8680     0.0020    -2.6350 c          1 DV4       0.660100
      5 C26         -9.6770     0.0030    -1.8440 cd         1 DV4      -0.197000
      6 C02         -1.1940    -0.2280     8.7360 c          1 DV4       0.661100
      7 C05          0.9800    -0.2460     7.7530 cc         1 DV4      -0.027400
      8 C06          0.5620    -0.1240     6.4200 cc         1 DV4      -0.153000
      9 C07          1.6970    -0.1100     5.6380 cd         1 DV4      -0.188900
     10 C08          1.7410     0.0040     4.1770 c          1 DV4       0.717700
     11 C11          0.6390     0.0040     2.0650 cd         1 DV4       0.427200
     12 C12          1.7660     0.0000     1.3010 cc         1 DV4      -0.253600
     13 C16         -0.8610     0.0000    -1.1940 c          1 DV4       0.612600
     14 C19         -3.0590     0.0010    -2.2480 c3         1 DV4       0.111000
     15 C25         -9.1930     0.0030    -3.1720 cd         1 DV4      -0.020400
     16 C27        -11.0250    -0.0020    -1.9050 cc         1 DV4      -0.156300
     17 C30        -10.2690     0.0020    -3.9920 cc         1 DV4      -0.207300
     18 C34          2.3380    -0.3030     7.7580 cd         1 DV4      -0.178300
     19 N04          0.1440    -0.2950     8.8830 ns         1 DV4      -0.453100
     20 N10          0.5950     0.0060     3.4660 ns         1 DV4      -0.509400
     21 N13          1.3670     0.0000     0.0000 na         1 DV4      -0.139900
     22 N18         -2.2020     0.0010    -1.0590 ns         1 DV4      -0.561900
     23 N24         -7.8430     0.0030    -3.5670 ns         1 DV4      -0.450100
     24 N28        -11.3950    -0.0000    -3.2160 na         1 DV4      -0.053100
     25 N31         -0.4170     0.0060     1.2500 nd         1 DV4      -0.705000
     26 N32          2.7830    -0.2210     6.4760 na         1 DV4      -0.004100
     27 O03         -1.6780    -0.1250     7.6280 o          1 DV4      -0.603100
     28 O09          2.8110     0.0960     3.6050 o          1 DV4      -0.638100
     29 O17         -0.3620     0.0010    -2.3040 o          1 DV4      -0.630100
     30 O23         -7.1550     0.0020    -1.4570 o          1 DV4      -0.597100
     31 H202        -4.7300     0.8860    -1.2270 hc         1 DV4       0.066700
     32 H201        -4.7310    -0.8830    -1.2270 hc         1 DV4       0.066700
     33 H212        -5.2190    -0.8820    -3.6510 hc         1 DV4       0.062700
     34 H211        -5.2190     0.8870    -3.6510 hc         1 DV4       0.062700
     35 H261        -9.0760     0.0030    -0.9430 ha         1 DV4       0.190000
     36 H011        -3.1240    -0.2110     9.6350 hc         1 DV4       0.063033
     37 H013        -1.9330    -1.2150    10.4720 hc         1 DV4       0.063033
     38 H012        -1.8550     0.5470    10.6060 hc         1 DV4       0.063033
     39 H061        -0.4610    -0.0540     6.0700 ha         1 DV4       0.193000
     40 H121         2.7880     0.0000     1.6610 h4         1 DV4       0.223000
     41 H142         3.2720    -0.0030    -0.8630 h1         1 DV4       0.062700
     42 H141         2.0410     0.8850    -1.7710 h1         1 DV4       0.062700
     43 H143         2.0380    -0.8840    -1.7730 h1         1 DV4       0.062700
     44 H191        -2.8560    -0.8830    -2.8390 h1         1 DV4       0.050700
     45 H192        -2.8550     0.8860    -2.8390 h1         1 DV4       0.050700
     46 H271       -11.6980    -0.0030    -1.0560 h4         1 DV4       0.166000
     47 H293       -13.4500    -0.2440    -2.9040 h1         1 DV4       0.048700
     48 H292       -13.0160     0.9800    -4.1050 h1         1 DV4       0.048700
     49 H291       -12.8730    -0.7390    -4.5010 h1         1 DV4       0.048700
     50 H301       -10.2430     0.0030    -5.0750 h4         1 DV4       0.160000
     51 H331         4.8220    -0.3320     6.9290 h1         1 DV4       0.059700
     52 H333         4.3520    -1.0960     5.4050 h1         1 DV4       0.059700
     53 H332         4.4210     0.6670     5.5260 h1         1 DV4       0.059700
     54 H341         2.9620    -0.3980     8.6380 h4         1 DV4       0.167000
     55 H041         0.5420    -0.3790     9.7970 hn         1 DV4       0.319500
     56 H101        -0.2870     0.0270     3.9390 hn         1 DV4       0.346500
     57 H181        -2.6130     0.0000    -0.1460 hn         1 DV4       0.340500
     58 H241        -7.6060     0.0030    -4.5390 hn         1 DV4       0.317500
     59 C14          2.2360    -0.0010    -1.1780 c3         1 DV4       0.038600
     60 C33          4.1860    -0.2470     6.0570 c3         1 DV4       0.038600
     61 C29        -12.7730    -0.0010    -3.7140 c3         1 DV4       0.039600
     62 C01         -2.0890    -0.2800     9.9470 c3         1 DV4      -0.170100
@<TRIPOS>BOND
     1    62     6 1
     2    19     6 1
     3    19     7 1
     4     6    27 2
     5     7    18 2
     6     7     8 1
     7    18    26 1
     8     8     9 2
     9    26    60 1
    10    26     9 1
    11     9    10 1
    12    28    10 2
    13    61    24 1
    14    10    20 1
    15    24    17 1
    16    24    16 1
    17    20    11 1
    18    17    15 2
    19    16     5 2
    20    11    12 2
    21    11    25 1
    22    15     5 1
    23    15    23 1
    24    12    21 1
    25    25     1 2
    26    23     4 1
    27    21     1 1
    28    21    59 1
    29     1    13 1
    30     4    30 2
    31     4     3 1
    32    13    29 2
    33    13    22 1
    34    14    22 1
    35    14     2 1
    36     3     2 1
    37     2    31 1
    38     2    32 1
    39     3    33 1
    40     3    34 1
    41     5    35 1
    42    62    36 1
    43    62    37 1
    44    62    38 1
    45     8    39 1
    46    12    40 1
    47    59    41 1
    48    59    42 1
    49    59    43 1
    50    14    44 1
    51    14    45 1
    52    16    46 1
    53    61    47 1
    54    61    48 1
    55    61    49 1
    56    17    50 1
    57    60    51 1
    58    60    52 1
    59    60    53 1
    60    18    54 1
    61    19    55 1
    62    20    56 1
    63    22    57 1
    64    23    58 1
@<TRIPOS>SUBSTRUCTURE
     1 DV4         1 TEMP              0 ****  ****    0 ROOT
