@<TRIPOS>MOLECULE
DV4
   62    64     1     0     0
SMALL
bcc


@<TRIPOS>ATOM
      1 C15          0.0000     0.0000     0.0000 cc         1 DV4       0.130000
      2 C20         -4.5270     0.0020    -1.8180 c3         1 DV4      -0.028400
      3 C21         -5.4220     0.0020    -3.0590 c3         1 DV4      -0.093400
      4 C22         -6.8680     0.0020    -2.6350 c          1 DV4       0.551100
      5 C26         -9.6770     0.0030    -1.8440 cc         1 DV4      -0.167000
      6 C02         -1.1940    -0.2280     8.7360 c          1 DV4       0.553100
      7 C05          0.9800    -0.2460     7.7530 cc         1 DV4      -0.168400
      8 C06          0.5620    -0.1240     6.4200 cc         1 DV4      -0.137000
      9 C07          1.6970    -0.1100     5.6380 cd         1 DV4      -0.390900
     10 C08          1.7410     0.0040     4.1770 c          1 DV4       0.628700
     11 C11          0.6390     0.0040     2.0650 cd         1 DV4       0.257200
     12 C12          1.7660     0.0000     1.3010 cc         1 DV4      -0.437600
     13 C16         -0.8610     0.0000    -1.1940 c          1 DV4       0.529600
     14 C19         -3.0590     0.0010    -2.2480 c3         1 DV4       0.042000
     15 C25         -9.1930     0.0030    -3.1720 cc         1 DV4      -0.165400
     16 C27        -11.0250    -0.0020    -1.9050 cd         1 DV4      -0.319300
     17 C30        -10.2690     0.0020    -3.9920 cd         1 DV4      -0.365300
     18 C34          2.3380    -0.3030     7.7580 cd         1 DV4      -0.359300
     19 N04          0.1440    -0.2950     8.8830 ns         1 DV4       0.013900
     20 N10          0.5950     0.0060     3.4660 ns         1 DV4      -0.038400
     21 N13          1.3670     0.0000     0.0000 na         1 DV4       0.377100
     22 N18         -2.2020     0.0010    -1.0590 ns         1 DV4      -0.160900
     23 N24         -7.8430     0.0030    -3.5670 ns         1 DV4       0.017900
     24 N28        -11.3950    -0.0000    -3.2160 na         1 DV4       0.440900
     25 N31         -0.4170     0.0060     1.2500 nd         1 DV4      -0.619000
     26 N32          2.7830    -0.2210     6.4760 na         1 DV4       0.529900
     27 O03         -1.6780    -0.1250     7.6280 o          1 DV4      -0.644100
     28 O09          2.8110     0.0960     3.6050 o          1 DV4      -0.693100
     29 O17         -0.3620     0.0010    -2.3040 o          1 DV4      -0.689100
     30 O23         -7.1550     0.0020    -1.4570 o          1 DV4      -0.638100
     31 H202        -4.7300     0.8860    -1.2270 hc         1 DV4       0.035700
     32 H201        -4.7310    -0.8830    -1.2270 hc         1 DV4       0.035700
     33 H212        -5.2190    -0.8820    -3.6510 hc         1 DV4       0.028700
     34 H211        -5.2190     0.8870    -3.6510 hc         1 DV4       0.028700
     35 H261        -9.0760     0.0030    -0.9430 ha         1 DV4       0.175000
     36 H011        -3.1240    -0.2110     9.6350 hc         1 DV4       0.023033
     37 H013        -1.9330    -1.2150    10.4720 hc         1 DV4       0.023033
     38 H012        -1.8550     0.5470    10.6060 hc         1 DV4       0.023033
     39 H061        -0.4610    -0.0540     6.0700 ha         1 DV4       0.178000
     40 H121         2.7880     0.0000     1.6610 h4         1 DV4       0.209000
     41 H142         3.2720    -0.0030    -0.8630 h1         1 DV4       0.034033
     42 H141         2.0410     0.8850    -1.7710 h1         1 DV4       0.034033
     43 H143         2.0380    -0.8840    -1.7730 h1         1 DV4       0.034033
     44 H191        -2.8560    -0.8830    -2.8390 h1         1 DV4       0.022700
     45 H192        -2.8550     0.8860    -2.8390 h1         1 DV4       0.022700
     46 H271       -11.6980    -0.0030    -1.0560 h4         1 DV4       0.145000
     47 H293       -13.4500    -0.2440    -2.9040 h1         1 DV4       0.018700
     48 H292       -13.0160     0.9800    -4.1050 h1         1 DV4       0.018700
     49 H291       -12.8730    -0.7390    -4.5010 h1         1 DV4       0.018700
     50 H301       -10.2430     0.0030    -5.0750 h4         1 DV4       0.144000
     51 H331         4.8220    -0.3320     6.9290 h1         1 DV4       0.031700
     52 H333         4.3520    -1.0960     5.4050 h1         1 DV4       0.031700
     53 H332         4.4210     0.6670     5.5260 h1         1 DV4       0.031700
     54 H341         2.9620    -0.3980     8.6380 h4         1 DV4       0.147000
     55 H041         0.5420    -0.3790     9.7970 hn         1 DV4       0.156500
     56 H101        -0.2870     0.0270     3.9390 hn         1 DV4       0.180500
     57 H181        -2.6130     0.0000    -0.1460 hn         1 DV4       0.197500
     58 H241        -7.6060     0.0030    -4.5390 hn         1 DV4       0.154500
     59 C14          2.2360    -0.0010    -1.1780 c3         1 DV4      -0.022400
     60 C33          4.1860    -0.2470     6.0570 c3         1 DV4      -0.033400
     61 C29        -12.7730    -0.0010    -3.7140 c3         1 DV4      -0.014400
     62 C01         -2.0890    -0.2800     9.9470 c3         1 DV4      -0.069100
@<TRIPOS>BOND
     1     1    13 1   
     2     1    21 1   
     3     1    25 2   
     4     2     3 1   
     5     2    14 1   
     6     2    31 1   
     7     2    32 1   
     8     3     4 1   
     9     3    33 1   
    10     3    34 1   
    11     4    23 1   
    12     4    30 2   
    13     5    15 1   
    14     5    16 2   
    15     5    35 1   
    16     6    19 1   
    17     6    27 2   
    18     6    62 1   
    19     7     8 1   
    20     7    18 2   
    21     7    19 1   
    22     8     9 2   
    23     8    39 1   
    24     9    10 1   
    25     9    26 1   
    26    10    20 1   
    27    10    28 2   
    28    11    12 2   
    29    11    20 1   
    30    11    25 1   
    31    12    21 1   
    32    12    40 1   
    33    13    22 1   
    34    13    29 2   
    35    14    22 1   
    36    14    44 1   
    37    14    45 1   
    38    15    17 2   
    39    15    23 1   
    40    16    24 1   
    41    16    46 1   
    42    17    24 1   
    43    17    50 1   
    44    18    26 1   
    45    18    54 1   
    46    19    55 1   
    47    20    56 1   
    48    21    59 1   
    49    22    57 1   
    50    23    58 1   
    51    24    61 1   
    52    26    60 1   
    53    36    62 1   
    54    37    62 1   
    55    38    62 1   
    56    41    59 1   
    57    42    59 1   
    58    43    59 1   
    59    47    61 1   
    60    48    61 1   
    61    49    61 1   
    62    51    60 1   
    63    52    60 1   
    64    53    60 1   
@<TRIPOS>SUBSTRUCTURE
     1 DV4         1 TEMP              0 ****  ****    0 ROOT
