@<TRIPOS>MOLECULE
DV5
   56    58     1     0     0
SMALL
bcc


@<TRIPOS>ATOM
      1 CAA          0.0000     0.0000     0.0000 c3         1 DV5      -0.065100
      2 CAT          1.5070     0.0000     0.0000 c          1 DV5       0.576100
      3 OAD          2.1130     0.0000     1.0510 o          1 DV5      -0.669100
      4 NAR          2.1810     0.0020    -1.1670 ns         1 DV5      -0.210900
      5 CBB          3.6470     0.0020    -1.1670 c3         1 DV5       0.000700
      6 CAC          4.1570    -1.4340    -1.0420 c3         1 DV5      -0.025100
      7 CAV          4.1480     0.6050    -2.4540 cs         1 DV5       0.270400
      8 SAG          3.1090     1.1190    -3.5540 s          1 DV5      -0.549400
      9 N            5.4730     0.7100    -2.6760 n          1 DV5       0.067200
     10 CD2          6.5370     0.2780    -1.7510 c3         1 DV5      -0.024000
     11 CG           7.7690     1.1330    -2.1360 c3         1 DV5       0.183100
     12 OD1          7.6930     2.4350    -1.5510 oh         1 DV5      -0.571800
     13 CB           7.6260     1.2090    -3.6800 c3         1 DV5      -0.049400
     14 CA           6.0980     1.2690    -3.8840 c3         1 DV5      -0.067300
     15 C            5.7110     0.4550    -5.0920 c          1 DV5       0.565100
     16 O            4.9720    -0.4990    -4.9700 o          1 DV5      -0.620100
     17 NAQ          6.1840     0.7880    -6.3090 ns         1 DV5      -0.188900
     18 CAM          5.8080    -0.0020    -7.4840 c3         1 DV5       0.111300
     19 CAX          6.4670     0.5740    -8.7100 ca         1 DV5      -0.125300
     20 CAI          7.7180     0.1260    -9.0960 ca         1 DV5      -0.081500
     21 CAK          8.3270     0.6500   -10.2170 ca         1 DV5      -0.093000
     22 CAH          5.8160     1.5470    -9.4490 ca         1 DV5      -0.081500
     23 CAJ          6.4140     2.0780   -10.5730 ca         1 DV5      -0.093000
     24 CAY          7.6770     1.6350   -10.9640 ca         1 DV5       0.014000
     25 CAZ          8.3240     2.2020   -12.1670 cc         1 DV5      -0.056400
     26 SAS          9.0840     1.2850   -13.4660 ss         1 DV5      -0.302300
     27 CAL          9.4750     2.7380   -14.2760 cc         1 DV5       0.464300
     28 NAP          9.0580     3.7560   -13.5990 nd         1 DV5      -0.551000
     29 CAW          8.4320     3.5130   -12.4700 cd         1 DV5       0.331600
     30 CAB          7.8930     4.6050   -11.5820 c3         1 DV5      -0.020400
     31 H1          -0.3610     0.7850    -0.6540 hc         1 DV5       0.023033
     32 H2          -0.3610     0.1740     1.0060 hc         1 DV5       0.023033
     33 H3          -0.3610    -0.9590    -0.3530 hc         1 DV5       0.023033
     34 H4           1.6810    -0.0080    -2.0340 hn         1 DV5       0.228500
     35 H5           4.0070     0.5880    -0.3290 h1         1 DV5       0.068700
     36 H6           4.7880    -1.5180    -0.1660 hc         1 DV5       0.019367
     37 H7           4.7290    -1.6920    -1.9250 hc         1 DV5       0.019367
     38 H8           3.3150    -2.1090    -0.9470 hc         1 DV5       0.019367
     39 H9           6.7520    -0.7750    -1.8910 h1         1 DV5       0.048700
     40 H10          6.2470     0.4770    -0.7260 h1         1 DV5       0.048700
     41 H11          8.6880     0.6300    -1.8600 h1         1 DV5       0.018700
     42 H12          8.4650     2.5930    -1.0340 ho         1 DV5       0.399000
     43 H13          8.0390     0.3220    -4.1450 hc         1 DV5       0.039200
     44 H14          8.0980     2.1060    -4.0630 hc         1 DV5       0.039200
     45 H15          5.7870     2.2980    -4.0130 h1         1 DV5       0.075700
     46 H16          6.7770     1.5880    -6.4130 hn         1 DV5       0.175500
     47 H17          6.1310    -1.0270    -7.3490 h1         1 DV5       0.033200
     48 H18          4.7320     0.0230    -7.6070 h1         1 DV5       0.033200
     49 H19          8.2200    -0.6380    -8.5150 ha         1 DV5       0.111500
     50 H20          9.3070     0.3000   -10.5170 ha         1 DV5       0.117000
     51 H21          4.8350     1.8900    -9.1450 ha         1 DV5       0.111500
     52 H22          5.9040     2.8400   -11.1490 ha         1 DV5       0.117000
     53 H23         10.0010     2.7970   -15.2210 h5         1 DV5       0.026100
     54 H24          8.1490     4.3910   -10.5510 hc         1 DV5       0.015700
     55 H25          6.8150     4.6530   -11.6830 hc         1 DV5       0.015700
     56 H26          8.3260     5.5540   -11.8720 hc         1 DV5       0.015700
@<TRIPOS>BOND
     1     1     2 1   
     2     1    31 1   
     3     1    32 1   
     4     1    33 1   
     5     2     3 2   
     6     2     4 1   
     7     4     5 1   
     8     4    34 1   
     9     5     6 1   
    10     5     7 1   
    11     5    35 1   
    12     6    36 1   
    13     6    37 1   
    14     6    38 1   
    15     7     8 2   
    16     7     9 1   
    17     9    10 1   
    18     9    14 1   
    19    10    11 1   
    20    10    39 1   
    21    10    40 1   
    22    11    12 1   
    23    11    13 1   
    24    11    41 1   
    25    12    42 1   
    26    13    14 1   
    27    13    43 1   
    28    13    44 1   
    29    14    15 1   
    30    14    45 1   
    31    15    16 2   
    32    15    17 1   
    33    17    18 1   
    34    17    46 1   
    35    18    19 1   
    36    18    47 1   
    37    18    48 1   
    38    19    20 ar  
    39    19    22 ar  
    40    20    21 ar  
    41    20    49 1   
    42    21    24 ar  
    43    21    50 1   
    44    22    23 ar  
    45    22    51 1   
    46    23    24 ar  
    47    23    52 1   
    48    24    25 1   
    49    25    26 1   
    50    25    29 2   
    51    26    27 1   
    52    27    28 2   
    53    27    53 1   
    54    28    29 1   
    55    29    30 1   
    56    30    54 1   
    57    30    55 1   
    58    30    56 1   
@<TRIPOS>SUBSTRUCTURE
     1 DV5         1 TEMP              0 ****  ****    0 ROOT
