@<TRIPOS>MOLECULE
molecule
   56    58     1     0     0
SMALL
bcc


@<TRIPOS>ATOM
      1 CAA          0.0000     0.0000     0.0000 c3         1 DV5      -0.167100
      2 CAT          1.5070     0.0000     0.0000 c          1 DV5       0.657100
      3 OAD          2.1130     0.0000     1.0510 o          1 DV5      -0.627100
      4 NAR          2.1810     0.0020    -1.1670 ns         1 DV5      -0.576900
      5 CBB          3.6470     0.0020    -1.1670 c3         1 DV5       0.079700
      6 CAC          4.1570    -1.4340    -1.0420 c3         1 DV5      -0.109100
      7 CAV          4.1480     0.6050    -2.4540 cs         1 DV5       0.431400
      8 SAG          3.1090     1.1190    -3.5540 s          1 DV5      -0.507400
      9 N            5.4730     0.7100    -2.6760 n          1 DV5      -0.374800
     10 CD2          6.5370     0.2780    -1.7510 c3         1 DV5       0.065000
     11 CG           7.7690     1.1330    -2.1360 c3         1 DV5       0.129100
     12 OD1          7.6930     2.4350    -1.5510 oh         1 DV5      -0.588800
     13 CB           7.6260     1.2090    -3.6800 c3         1 DV5      -0.104400
     14 CA           6.0980     1.2690    -3.8840 c3         1 DV5       0.040700
     15 C            5.7110     0.4550    -5.0920 c          1 DV5       0.651100
     16 O            4.9720    -0.4990    -4.9700 o          1 DV5      -0.582100
     17 NAQ          6.1840     0.7880    -6.3090 ns         1 DV5      -0.583900
     18 CAM          5.8080    -0.0020    -7.4840 c3         1 DV5       0.162300
     19 CAX          6.4670     0.5740    -8.7100 ca         1 DV5      -0.116300
     20 CAI          7.7180     0.1260    -9.0960 ca         1 DV5      -0.112000
     21 CAK          8.3270     0.6500   -10.2170 ca         1 DV5      -0.116500
     22 CAH          5.8160     1.5470    -9.4490 ca         1 DV5      -0.112000
     23 CAJ          6.4140     2.0780   -10.5730 ca         1 DV5      -0.116500
     24 CAY          7.6770     1.6350   -10.9640 ca         1 DV5       0.004000
     25 CAZ          8.3240     2.2020   -12.1670 cc         1 DV5      -0.105400
     26 SAS          9.0840     1.2850   -13.4660 ss         1 DV5      -0.198300
     27 CAL          9.4750     2.7380   -14.2760 cd         1 DV5       0.440300
     28 NAP          9.0580     3.7560   -13.5990 nc         1 DV5      -0.675000
     29 CAW          8.4320     3.5130   -12.4700 cc         1 DV5       0.382600
     30 CAB          7.8930     4.6050   -11.5820 c3         1 DV5      -0.117400
     31 H1          -0.3610     0.7850    -0.6540 hc         1 DV5       0.061700
     32 H2          -0.3610     0.1740     1.0060 hc         1 DV5       0.061700
     33 H3          -0.3610    -0.9590    -0.3530 hc         1 DV5       0.061700
     34 H4           1.6810    -0.0080    -2.0340 hn         1 DV5       0.350500
     35 H5           4.0070     0.5880    -0.3290 h1         1 DV5       0.095700
     36 H6           4.7880    -1.5180    -0.1660 hc         1 DV5       0.050367
     37 H7           4.7290    -1.6920    -1.9250 hc         1 DV5       0.050367
     38 H8           3.3150    -2.1090    -0.9470 hc         1 DV5       0.050367
     39 H9           6.7520    -0.7750    -1.8910 h1         1 DV5       0.069700
     40 H10          6.2470     0.4770    -0.7260 h1         1 DV5       0.069700
     41 H11          8.6880     0.6300    -1.8600 h1         1 DV5       0.053700
     42 H12          8.4650     2.5930    -1.0340 ho         1 DV5       0.409000
     43 H13          8.0390     0.3220    -4.1450 hc         1 DV5       0.070700
     44 H14          8.0980     2.1060    -4.0630 hc         1 DV5       0.070700
     45 H15          5.7870     2.2980    -4.0130 h1         1 DV5       0.101700
     46 H16          6.7770     1.5880    -6.4130 hn         1 DV5       0.314500
     47 H17          6.1310    -1.0270    -7.3490 h1         1 DV5       0.062200
     48 H18          4.7320     0.0230    -7.6070 h1         1 DV5       0.062200
     49 H19          8.2200    -0.6380    -8.5150 ha         1 DV5       0.139000
     50 H20          9.3070     0.3000   -10.5170 ha         1 DV5       0.140500
     51 H21          4.8350     1.8900    -9.1450 ha         1 DV5       0.139000
     52 H22          5.9040     2.8400   -11.1490 ha         1 DV5       0.140500
     53 H23         10.0010     2.7970   -15.2210 h5         1 DV5       0.062100
     54 H24          8.1490     4.3910   -10.5510 hc         1 DV5       0.052700
     55 H25          6.8150     4.6530   -11.6830 hc         1 DV5       0.052700
     56 H26          8.3260     5.5540   -11.8720 hc         1 DV5       0.052700
@<TRIPOS>BOND
     1    28    27 2
     2    28    29 1
     3    27    26 1
     4    30    29 1
     5    29    25 2
     6    26    25 1
     7    25    24 1
     8    24    21 ar
     9    24    23 ar
    10    21    20 ar
    11    23    22 ar
    12    20    19 ar
    13    22    19 ar
    14    19    18 1
    15    18    17 1
    16    17    15 1
    17    13    14 1
    18    13    11 1
    19    15    16 2
    20    15    14 1
    21    14     9 1
    22    11    12 1
    23    11    10 1
    24     9    10 1
    25     9     7 1
    26     8     7 2
    27     7     5 1
    28     6     5 1
    29     5     4 1
    30     4     2 1
    31     3     2 2
    32     2     1 1
    33     1    31 1
    34     1    32 1
    35     1    33 1
    36     4    34 1
    37     5    35 1
    38     6    36 1
    39     6    37 1
    40     6    38 1
    41    10    39 1
    42    10    40 1
    43    11    41 1
    44    12    42 1
    45    13    43 1
    46    13    44 1
    47    14    45 1
    48    17    46 1
    49    18    47 1
    50    18    48 1
    51    20    49 1
    52    21    50 1
    53    22    51 1
    54    23    52 1
    55    27    53 1
    56    30    54 1
    57    30    55 1
    58    30    56 1
@<TRIPOS>SUBSTRUCTURE
     1 DV5         1 TEMP              0 ****  ****    0 ROOT
