@<TRIPOS>MOLECULE
molecule
   56    58     1     0     0
SMALL
bcc


@<TRIPOS>ATOM
      1 CAA          0.0000     0.0000     0.0000 c3         1 DV8      -0.168100
      2 CAT          1.5060     0.0000     0.0000 c          1 DV8       0.657100
      3 OAD          2.1120     0.0000     1.0500 o          1 DV8      -0.627100
      4 NAR          2.1800    -0.0020    -1.1680 ns         1 DV8      -0.577900
      5 CBB          3.6460    -0.0020    -1.1670 c3         1 DV8       0.083700
      6 CAC          4.1550    -1.4390    -1.0400 c3         1 DV8      -0.110100
      7 CAV          4.1480     0.5970    -2.4560 cs         1 DV8       0.433400
      8 SAG          3.1150     1.0000    -3.6070 s          1 DV8      -0.508400
      9 NBD          5.4700     0.7930    -2.6370 n          1 DV8      -0.368800
     10 CAO          6.5280     0.4690    -1.6630 c3         1 DV8       0.069000
     11 CBA          7.7080     1.4010    -2.0350 c3         1 DV8       0.129100
     12 OAE          7.5150     2.7100    -1.4930 oh         1 DV8      -0.589800
     13 CAN          7.6150     1.4200    -3.5830 c3         1 DV8      -0.105400
     14 CBC          6.0940     1.3600    -3.8400 c3         1 DV8       0.074700
     15 CAU          5.8110     0.4850    -5.0340 cs         1 DV8       0.378400
     16 SAF          5.0290    -0.8980    -4.8450 s          1 DV8      -0.489400
     17 NAQ          6.2160     0.8680    -6.2620 ns         1 DV8      -0.484900
     18 CAM          5.9410     0.0170    -7.4220 c3         1 DV8       0.150300
     19 CAX          6.4930     0.6660    -8.6640 ca         1 DV8      -0.123300
     20 CAI          7.7910     0.3960    -9.0640 ca         1 DV8      -0.109500
     21 CAK          8.3020     0.9880   -10.2000 ca         1 DV8      -0.117000
     22 CAH          5.7010     1.5260    -9.4030 ca         1 DV8      -0.109500
     23 CAJ          6.2010     2.1240   -10.5410 ca         1 DV8      -0.117000
     24 CAY          7.5100     1.8590   -10.9460 ca         1 DV8       0.008000
     25 CAZ          8.0530     2.4970   -12.1660 cc         1 DV8      -0.109400
     26 SAS          8.9230     1.6830   -13.4640 ss         1 DV8      -0.195300
     27 CAL          9.0880     3.1660   -14.2980 cd         1 DV8       0.441300
     28 NAP          8.5330     4.1220   -13.6280 nc         1 DV8      -0.675000
     29 CAW          7.9640     3.8060   -12.4860 cc         1 DV8       0.384600
     30 CAB          7.2810     4.8200   -11.6050 c3         1 DV8      -0.117400
     31 H1          -0.3610     0.9070    -0.4700 hc         1 DV8       0.061367
     32 H2          -0.3610    -0.8610    -0.5500 hc         1 DV8       0.061367
     33 H3          -0.3610    -0.0460     1.0200 hc         1 DV8       0.061367
     34 H4           1.6800    -0.0310    -2.0340 hn         1 DV8       0.350500
     35 H5           4.0070     0.5850    -0.3310 h1         1 DV8       0.091700
     36 H6           4.4580    -1.8020    -2.0140 hc         1 DV8       0.052367
     37 H7           3.3650    -2.0690    -0.6490 hc         1 DV8       0.052367
     38 H8           5.0020    -1.4640    -0.3650 hc         1 DV8       0.052367
     39 H9           6.1890     0.6760    -0.6560 h1         1 DV8       0.072200
     40 H10          6.8240    -0.5690    -1.7620 h1         1 DV8       0.072200
     41 H11          8.6500     0.9760    -1.7120 h1         1 DV8       0.054700
     42 H12          8.2720     2.9560    -0.9870 ho         1 DV8       0.409000
     43 H13          8.0330     2.3380    -3.9790 hc         1 DV8       0.070700
     44 H14          8.1070     0.5520    -4.0050 hc         1 DV8       0.070700
     45 H15          5.7140     2.3600    -4.0130 h1         1 DV8       0.101700
     46 H16          6.6740     1.7490    -6.3850 hn         1 DV8       0.314500
     47 H17          6.4100    -0.9490    -7.2810 h1         1 DV8       0.078200
     48 H18          4.8700    -0.1140    -7.5290 h1         1 DV8       0.078200
     49 H19          8.4050    -0.2810    -8.4830 ha         1 DV8       0.140000
     50 H20          9.3190     0.7770   -10.5110 ha         1 DV8       0.142000
     51 H21          4.6850     1.7300    -9.0870 ha         1 DV8       0.140000
     52 H22          5.5800     2.7980   -11.1180 ha         1 DV8       0.142000
     53 H23          9.5880     3.2870   -15.2510 h5         1 DV8       0.063100
     54 H24          7.5650     5.8180   -11.9160 hc         1 DV8       0.053033
     55 H25          7.5790     4.6640   -10.5760 hc         1 DV8       0.053033
     56 H26          6.2070     4.7070   -11.6910 hc         1 DV8       0.053033
@<TRIPOS>BOND
     1    28    27 2
     2    28    29 1
     3    27    26 1
     4    30    29 1
     5    29    25 2
     6    26    25 1
     7    25    24 1
     8    24    23 ar
     9    24    21 ar
    10    23    22 ar
    11    21    20 ar
    12    22    19 ar
    13    20    19 ar
    14    19    18 1
    15    18    17 1
    16    17    15 1
    17    13    14 1
    18    13    11 1
    19    15    16 2
    20    15    14 1
    21    14     9 1
    22    11    12 1
    23    11    10 1
    24     9    10 1
    25     9     7 1
    26     8     7 2
    27     7     5 1
    28     5     6 1
    29     5     4 1
    30     4     2 1
    31     3     2 2
    32     2     1 1
    33     1    31 1
    34     1    32 1
    35     1    33 1
    36     4    34 1
    37     5    35 1
    38     6    36 1
    39     6    37 1
    40     6    38 1
    41    10    39 1
    42    10    40 1
    43    11    41 1
    44    12    42 1
    45    13    43 1
    46    13    44 1
    47    14    45 1
    48    17    46 1
    49    18    47 1
    50    18    48 1
    51    20    49 1
    52    21    50 1
    53    22    51 1
    54    23    52 1
    55    27    53 1
    56    30    54 1
    57    30    55 1
    58    30    56 1
@<TRIPOS>SUBSTRUCTURE
     1 DV8         1 TEMP              0 ****  ****    0 ROOT
