@<TRIPOS>MOLECULE
DV8
   56    58     1     0     0
SMALL
bcc


@<TRIPOS>ATOM
      1 CAA          0.0000     0.0000     0.0000 c3         1 DV8      -0.066100
      2 CAT          1.5060     0.0000     0.0000 c          1 DV8       0.576100
      3 OAD          2.1120     0.0000     1.0500 o          1 DV8      -0.669100
      4 NAR          2.1800    -0.0020    -1.1680 ns         1 DV8      -0.212900
      5 CBB          3.6460    -0.0020    -1.1670 c3         1 DV8       0.006700
      6 CAC          4.1550    -1.4390    -1.0400 c3         1 DV8      -0.034100
      7 CAV          4.1480     0.5970    -2.4560 cs         1 DV8       0.268400
      8 SAG          3.1150     1.0000    -3.6070 s          1 DV8      -0.545400
      9 NBD          5.4700     0.7930    -2.6370 n          1 DV8       0.075200
     10 CAO          6.5280     0.4690    -1.6630 c3         1 DV8      -0.022000
     11 CBA          7.7080     1.4010    -2.0350 c3         1 DV8       0.184100
     12 OAE          7.5150     2.7100    -1.4930 oh         1 DV8      -0.572800
     13 CAN          7.6150     1.4200    -3.5830 c3         1 DV8      -0.054400
     14 CBC          6.0940     1.3600    -3.8400 c3         1 DV8      -0.017300
     15 CAU          5.8110     0.4850    -5.0340 cs         1 DV8       0.205400
     16 SAF          5.0290    -0.8980    -4.8450 s          1 DV8      -0.528400
     17 NAQ          6.2160     0.8680    -6.2620 ns         1 DV8       0.000100
     18 CAM          5.9410     0.0170    -7.4220 c3         1 DV8       0.066300
     19 CAX          6.4930     0.6660    -8.6640 ca         1 DV8      -0.134300
     20 CAI          7.7910     0.3960    -9.0640 ca         1 DV8      -0.079500
     21 CAK          8.3020     0.9880   -10.2000 ca         1 DV8      -0.092000
     22 CAH          5.7010     1.5260    -9.4030 ca         1 DV8      -0.079500
     23 CAJ          6.2010     2.1240   -10.5410 ca         1 DV8      -0.092000
     24 CAY          7.5100     1.8590   -10.9460 ca         1 DV8       0.021000
     25 CAZ          8.0530     2.4970   -12.1660 cc         1 DV8      -0.061400
     26 SAS          8.9230     1.6830   -13.4640 ss         1 DV8      -0.299300
     27 CAL          9.0880     3.1660   -14.2980 cc         1 DV8       0.466300
     28 NAP          8.5330     4.1220   -13.6280 nd         1 DV8      -0.551000
     29 CAW          7.9640     3.8060   -12.4860 cd         1 DV8       0.333600
     30 CAB          7.2810     4.8200   -11.6050 c3         1 DV8      -0.020400
     31 H1          -0.3610     0.9070    -0.4700 hc         1 DV8       0.022700
     32 H2          -0.3610    -0.8610    -0.5500 hc         1 DV8       0.022700
     33 H3          -0.3610    -0.0460     1.0200 hc         1 DV8       0.022700
     34 H4           1.6800    -0.0310    -2.0340 hn         1 DV8       0.228500
     35 H5           4.0070     0.5850    -0.3310 h1         1 DV8       0.064700
     36 H6           4.4580    -1.8020    -2.0140 hc         1 DV8       0.023700
     37 H7           3.3650    -2.0690    -0.6490 hc         1 DV8       0.023700
     38 H8           5.0020    -1.4640    -0.3650 hc         1 DV8       0.023700
     39 H9           6.1890     0.6760    -0.6560 h1         1 DV8       0.051200
     40 H10          6.8240    -0.5690    -1.7620 h1         1 DV8       0.051200
     41 H11          8.6500     0.9760    -1.7120 h1         1 DV8       0.019700
     42 H12          8.2720     2.9560    -0.9870 ho         1 DV8       0.399000
     43 H13          8.0330     2.3380    -3.9790 hc         1 DV8       0.040200
     44 H14          8.1070     0.5520    -4.0050 hc         1 DV8       0.040200
     45 H15          5.7140     2.3600    -4.0130 h1         1 DV8       0.075700
     46 H16          6.6740     1.7490    -6.3850 hn         1 DV8       0.163500
     47 H17          6.4100    -0.9490    -7.2810 h1         1 DV8       0.058200
     48 H18          4.8700    -0.1140    -7.5290 h1         1 DV8       0.058200
     49 H19          8.4050    -0.2810    -8.4830 ha         1 DV8       0.112500
     50 H20          9.3190     0.7770   -10.5110 ha         1 DV8       0.118500
     51 H21          4.6850     1.7300    -9.0870 ha         1 DV8       0.112500
     52 H22          5.5800     2.7980   -11.1180 ha         1 DV8       0.118500
     53 H23          9.5880     3.2870   -15.2510 h5         1 DV8       0.026100
     54 H24          7.5650     5.8180   -11.9160 hc         1 DV8       0.016367
     55 H25          7.5790     4.6640   -10.5760 hc         1 DV8       0.016367
     56 H26          6.2070     4.7070   -11.6910 hc         1 DV8       0.016367
@<TRIPOS>BOND
     1     1     2 1   
     2     1    31 1   
     3     1    32 1   
     4     1    33 1   
     5     2     3 2   
     6     2     4 1   
     7     4     5 1   
     8     4    34 1   
     9     5     6 1   
    10     5     7 1   
    11     5    35 1   
    12     6    36 1   
    13     6    37 1   
    14     6    38 1   
    15     7     8 2   
    16     7     9 1   
    17     9    10 1   
    18     9    14 1   
    19    10    11 1   
    20    10    39 1   
    21    10    40 1   
    22    11    12 1   
    23    11    13 1   
    24    11    41 1   
    25    12    42 1   
    26    13    14 1   
    27    13    43 1   
    28    13    44 1   
    29    14    15 1   
    30    14    45 1   
    31    15    16 2   
    32    15    17 1   
    33    17    18 1   
    34    17    46 1   
    35    18    19 1   
    36    18    47 1   
    37    18    48 1   
    38    19    20 ar  
    39    19    22 ar  
    40    20    21 ar  
    41    20    49 1   
    42    21    24 ar  
    43    21    50 1   
    44    22    23 ar  
    45    22    51 1   
    46    23    24 ar  
    47    23    52 1   
    48    24    25 1   
    49    25    26 1   
    50    25    29 2   
    51    26    27 1   
    52    27    28 2   
    53    27    53 1   
    54    28    29 1   
    55    29    30 1   
    56    30    54 1   
    57    30    55 1   
    58    30    56 1   
@<TRIPOS>SUBSTRUCTURE
     1 DV8         1 TEMP              0 ****  ****    0 ROOT
