@<TRIPOS>MOLECULE
molecule
   63    68     1     0     0
SMALL
bcc


@<TRIPOS>ATOM
      1 C4           0.0000     0.0000     0.0000 c3         1 DVD       0.090300
      2 C6           0.3350     1.6620     1.8200 cc         1 DVD      -0.057600
      3 C11         -2.5750     4.3730     3.2590 cc         1 DVD       0.093800
      4 C7          -0.3980     2.5890     2.4610 cd         1 DVD      -0.354300
      5 C8          -1.6960     2.5620     1.9170 cd         1 DVD       0.609200
      6 C12         -2.8200     5.6800     2.9470 cd         1 DVD      -0.231600
      7 C13         -2.6240     6.6770     3.9230 cd         1 DVD       0.435200
      8 N2           2.0300     0.0000     1.3840 n3         1 DVD      -0.732600
      9 C3           1.5340     0.0000     0.0000 c3         1 DVD       0.135800
     10 C1           3.4560    -0.3500     1.4320 c3         1 DVD       0.153100
     11 C17         -2.1280     4.0460     4.5640 c          1 DVD       0.640700
     12 C19         -2.8890     8.0980     3.5860 ca         1 DVD      -0.078900
     13 C20         -3.9210     8.7870     4.2240 ca         1 DVD      -0.121000
     14 C21         -4.1660    10.1080     3.9090 ca         1 DVD      -0.105000
     15 C22         -3.3920    10.7530     2.9630 ca         1 DVD      -0.130000
     16 C23         -2.3620    10.0750     2.3230 ca         1 DVD       0.081600
     17 C24         -2.1060     8.7480     2.6380 ca         1 DVD      -0.108300
     18 C25         -0.9850     8.0120     1.9500 c3         1 DVD       0.180700
     19 C28         -1.4670    12.0730     1.3950 c          1 DVD       0.704300
     20 C30         -0.7430    12.7720     0.3230 cc         1 DVD      -0.119600
     21 C31         -0.5730    14.0970     0.2590 cd         1 DVD      -0.043200
     22 C32          0.1530    14.5610    -0.8500 ca         1 DVD      -0.097800
     23 C33          0.4940    15.8910    -1.1930 ca         1 DVD      -0.076000
     24 C34          1.2090    16.1510    -2.3200 ca         1 DVD      -0.134000
     25 C35          1.6180    15.1180    -3.1550 ca         1 DVD      -0.102000
     26 C36          1.3020    13.8160    -2.8480 ca         1 DVD      -0.103000
     27 C37          0.5680    13.5240    -1.6940 ca         1 DVD       0.007900
     28 C39          1.7830     1.2980     2.0360 c3         1 DVD       0.229100
     29 N10         -2.7680     3.3720     2.3070 nu         1 DVD      -0.763700
     30 N14         -2.2100     6.3590     5.1290 nc         1 DVD      -0.439300
     31 N15         -1.9530     5.0280     5.4710 ns         1 DVD      -0.291900
     32 N27         -1.5820    10.7310     1.3660 ns         1 DVD      -0.463100
     33 N5          -0.4590     1.0650     0.8970 na         1 DVD       0.069400
     34 N9          -1.7250     1.6420     0.9770 nc         1 DVD      -0.562800
     35 O18         -1.9040     2.8840     4.8640 o          1 DVD      -0.624500
     36 O26         -1.4520     7.4900     0.7040 oh         1 DVD      -0.609800
     37 O29         -1.9630    12.7060     2.3070 o          1 DVD      -0.585100
     38 S38          0.0250    11.9810    -1.0430 ss         1 DVD      -0.104500
     39 H1          -0.3410     0.2280    -1.0030 h1         1 DVD       0.070200
     40 H2          -0.3410    -0.9500     0.3940 h1         1 DVD       0.070200
     41 H3          -0.0740     3.1850     3.3050 ha         1 DVD       0.158000
     42 H4          -3.1620     5.9480     1.9540 ha         1 DVD       0.172000
     43 H6           1.8930     0.8860    -0.5100 h1         1 DVD       0.046700
     44 H7           1.8930    -0.8860    -0.5100 h1         1 DVD       0.046700
     45 H8           4.0160     0.3320     0.8050 h1         1 DVD       0.035700
     46 H9           3.5910    -1.3640     1.0730 h1         1 DVD       0.035700
     47 H10          3.8110    -0.2780     2.4520 h1         1 DVD       0.035700
     48 H11         -4.5300     8.2850     4.9660 ha         1 DVD       0.141000
     49 H12         -4.9680    10.6420     4.4050 ha         1 DVD       0.140000
     50 H13         -3.5910    11.7890     2.7180 ha         1 DVD       0.177000
     51 H14         -0.6480     7.1980     2.5800 h1         1 DVD       0.033700
     52 H15         -0.1620     8.6940     1.7700 h1         1 DVD       0.033700
     53 H17         -0.9690    14.7670     1.0120 ha         1 DVD       0.172000
     54 H18          0.1830    16.7080    -0.5530 ha         1 DVD       0.138000
     55 H19          1.4630    17.1740    -2.5700 ha         1 DVD       0.136000
     56 H20          2.1870    15.3400    -4.0500 ha         1 DVD       0.138000
     57 H21          1.6230    13.0140    -3.5010 ha         1 DVD       0.138000
     58 H22          1.9520     1.1850     3.1000 h1         1 DVD       0.060200
     59 H23          2.3990     2.0470     1.5520 h1         1 DVD       0.060200
     60 H24         -3.6790     3.2150     1.9240 hn         1 DVD       0.464800
     61 H16         -1.6380     4.8030     6.3940 hn         1 DVD       0.371500
     62 H25         -1.0360    10.1980     0.7190 hn         1 DVD       0.332500
     63 H26         -0.7150     7.2360     0.1730 ho         1 DVD       0.405000
@<TRIPOS>BOND
     1    10     8 1
     2     8    28 1
     3     8     9 1
     4    28     2 1
     5     9     1 1
     6     2    33 1
     7     2     4 2
     8     1    33 1
     9    33    34 1
    10     4     5 1
    11    34     5 2
    12     5    29 1
    13    29     3 1
    14     3     6 2
    15     3    11 1
    16     6     7 1
    17    35    11 2
    18    11    31 1
    19    13    14 ar
    20    13    12 ar
    21     7    12 1
    22     7    30 2
    23    14    15 ar
    24    31    30 1
    25    12    17 ar
    26    15    16 ar
    27    17    16 ar
    28    17    18 1
    29    16    32 1
    30    18    36 1
    31    32    19 1
    32    37    19 2
    33    19    20 1
    34    20    21 2
    35    20    38 1
    36    21    22 1
    37    38    27 1
    38    22    27 ar
    39    22    23 ar
    40    27    26 ar
    41    23    24 ar
    42    26    25 ar
    43    24    25 ar
    44     1    39 1
    45     1    40 1
    46     4    41 1
    47     6    42 1
    48     9    43 1
    49     9    44 1
    50    10    45 1
    51    10    46 1
    52    10    47 1
    53    13    48 1
    54    14    49 1
    55    15    50 1
    56    18    51 1
    57    18    52 1
    58    21    53 1
    59    23    54 1
    60    24    55 1
    61    25    56 1
    62    26    57 1
    63    28    58 1
    64    28    59 1
    65    29    60 1
    66    31    61 1
    67    32    62 1
    68    36    63 1
@<TRIPOS>SUBSTRUCTURE
     1 DVD         1 TEMP              0 ****  ****    0 ROOT
