@<TRIPOS>MOLECULE
DVD
   63    68     1     0     0
SMALL
bcc


@<TRIPOS>ATOM
      1 C4           0.0000     0.0000     0.0000 c3         1 DVD       0.001300
      2 C6           0.3350     1.6620     1.8200 cc         1 DVD      -0.222600
      3 C11         -2.5750     4.3730     3.2590 cc         1 DVD      -0.067200
      4 C7          -0.3980     2.5890     2.4610 cd         1 DVD      -0.341300
      5 C8          -1.6960     2.5620     1.9170 cd         1 DVD       0.482200
      6 C12         -2.8200     5.6800     2.9470 cd         1 DVD      -0.214600
      7 C13         -2.6240     6.6770     3.9230 cd         1 DVD       0.454200
      8 N2           2.0300     0.0000     1.3840 n3         1 DVD      -0.552600
      9 C3           1.5340     0.0000     0.0000 c3         1 DVD       0.133800
     10 C1           3.4560    -0.3500     1.4320 c3         1 DVD       0.192100
     11 C17         -2.1280     4.0460     4.5640 c          1 DVD       0.552700
     12 C19         -2.8890     8.0980     3.5860 ca         1 DVD      -0.082900
     13 C20         -3.9210     8.7870     4.2240 ca         1 DVD      -0.094000
     14 C21         -4.1660    10.1080     3.9090 ca         1 DVD      -0.073000
     15 C22         -3.3920    10.7530     2.9630 ca         1 DVD      -0.117000
     16 C23         -2.3620    10.0750     2.3230 ca         1 DVD      -0.064400
     17 C24         -2.1060     8.7480     2.6380 ca         1 DVD      -0.125300
     18 C25         -0.9850     8.0120     1.9500 c3         1 DVD       0.270700
     19 C28         -1.4670    12.0730     1.3950 c          1 DVD       0.619300
     20 C30         -0.7430    12.7720     0.3230 cc         1 DVD      -0.096600
     21 C31         -0.5730    14.0970     0.2590 cd         1 DVD       0.001800
     22 C32          0.1530    14.5610    -0.8500 ca         1 DVD      -0.102800
     23 C33          0.4940    15.8910    -1.1930 ca         1 DVD      -0.043000
     24 C34          1.2090    16.1510    -2.3200 ca         1 DVD      -0.107000
     25 C35          1.6180    15.1180    -3.1550 ca         1 DVD      -0.076000
     26 C36          1.3020    13.8160    -2.8480 ca         1 DVD      -0.065000
     27 C37          0.5680    13.5240    -1.6940 ca         1 DVD       0.048900
     28 C39          1.7830     1.2980     2.0360 c3         1 DVD       0.246100
     29 N10         -2.7680     3.3720     2.3070 nu         1 DVD      -0.285700
     30 N14         -2.2100     6.3590     5.1290 nc         1 DVD      -0.539300
     31 N15         -1.9530     5.0280     5.4710 ns         1 DVD       0.130100
     32 N27         -1.5820    10.7310     1.3660 ns         1 DVD      -0.019100
     33 N5          -0.4590     1.0650     0.8970 na         1 DVD       0.497400
     34 N9          -1.7250     1.6420     0.9770 nc         1 DVD      -0.703800
     35 O18         -1.9040     2.8840     4.8640 o          1 DVD      -0.674500
     36 O26         -1.4520     7.4900     0.7040 oh         1 DVD      -0.591800
     37 O29         -1.9630    12.7060     2.3070 o          1 DVD      -0.630100
     38 S38          0.0250    11.9810    -1.0430 ss         1 DVD      -0.216500
     39 H1          -0.3410     0.2280    -1.0030 h1         1 DVD       0.038700
     40 H2          -0.3410    -0.9500     0.3940 h1         1 DVD       0.038700
     41 H3          -0.0740     3.1850     3.3050 ha         1 DVD       0.143000
     42 H4          -3.1620     5.9480     1.9540 ha         1 DVD       0.145000
     43 H6           1.8930     0.8860    -0.5100 h1         1 DVD       0.018700
     44 H7           1.8930    -0.8860    -0.5100 h1         1 DVD       0.018700
     45 H8           4.0160     0.3320     0.8050 h1         1 DVD       0.002367
     46 H9           3.5910    -1.3640     1.0730 h1         1 DVD       0.002367
     47 H10          3.8110    -0.2780     2.4520 h1         1 DVD       0.002367
     48 H11         -4.5300     8.2850     4.9660 ha         1 DVD       0.111000
     49 H12         -4.9680    10.6420     4.4050 ha         1 DVD       0.107000
     50 H13         -3.5910    11.7890     2.7180 ha         1 DVD       0.157000
     51 H14         -0.6480     7.1980     2.5800 h1         1 DVD      -0.004300
     52 H15         -0.1620     8.6940     1.7700 h1         1 DVD      -0.004300
     53 H17         -0.9690    14.7670     1.0120 ha         1 DVD       0.138000
     54 H18          0.1830    16.7080    -0.5530 ha         1 DVD       0.108000
     55 H19          1.4630    17.1740    -2.5700 ha         1 DVD       0.108000
     56 H20          2.1870    15.3400    -4.0500 ha         1 DVD       0.108000
     57 H21          1.6230    13.0140    -3.5010 ha         1 DVD       0.112000
     58 H22          1.9520     1.1850     3.1000 h1         1 DVD       0.026200
     59 H23          2.3990     2.0470     1.5520 h1         1 DVD       0.026200
     60 H24         -3.6790     3.2150     1.9240 hn         1 DVD       0.291800
     61 H16         -1.6380     4.8030     6.3940 hn         1 DVD       0.205500
     62 H25         -1.0360    10.1980     0.7190 hn         1 DVD       0.184500
     63 H26         -0.7150     7.2360     0.1730 ho         1 DVD       0.393000
@<TRIPOS>BOND
     1     1     9 1   
     2     1    33 1   
     3     1    39 1   
     4     1    40 1   
     5     2     4 2   
     6     2    28 1   
     7     2    33 1   
     8     3     6 2   
     9     3    11 1   
    10     3    29 1   
    11     4     5 1   
    12     4    41 1   
    13     5    29 1   
    14     5    34 2   
    15     6     7 1   
    16     6    42 1   
    17     7    12 1   
    18     7    30 2   
    19     8     9 1   
    20     8    10 1   
    21     8    28 1   
    22     9    43 1   
    23     9    44 1   
    24    10    45 1   
    25    10    46 1   
    26    10    47 1   
    27    11    31 1   
    28    11    35 2   
    29    12    13 ar  
    30    12    17 ar  
    31    13    14 ar  
    32    13    48 1   
    33    14    15 ar  
    34    14    49 1   
    35    15    16 ar  
    36    15    50 1   
    37    16    17 ar  
    38    16    32 1   
    39    17    18 1   
    40    18    36 1   
    41    18    51 1   
    42    18    52 1   
    43    19    20 1   
    44    19    32 1   
    45    19    37 2   
    46    20    21 2   
    47    20    38 1   
    48    21    22 1   
    49    21    53 1   
    50    22    23 ar  
    51    22    27 ar  
    52    23    24 ar  
    53    23    54 1   
    54    24    25 ar  
    55    24    55 1   
    56    25    26 ar  
    57    25    56 1   
    58    26    27 ar  
    59    26    57 1   
    60    27    38 1   
    61    28    58 1   
    62    28    59 1   
    63    29    60 1   
    64    30    31 1   
    65    31    61 1   
    66    32    62 1   
    67    33    34 1   
    68    36    63 1   
@<TRIPOS>SUBSTRUCTURE
     1 DVD         1 TEMP              0 ****  ****    0 ROOT
