@<TRIPOS>MOLECULE
molecule
   81    84     1     0     0
SMALL
bcc


@<TRIPOS>ATOM
      1 C3           1.5300     0.0000     0.0000 c3         1 DVE      -0.089100
      2 C2           0.0000     0.0000     0.0000 c3         1 DVE      -0.019800
      3 C4          -0.4910     0.0000     1.4470 c3         1 DVE      -0.068400
      4 C5           0.0830    -1.2270     2.1630 c3         1 DVE      -0.109400
      5 C6          -0.3660    -2.5050     1.4520 c3         1 DVE       0.151100
      6 O8           0.1930    -3.6390     2.1190 oh         1 DVE      -0.607800
      7 C9           0.1050    -2.4860    -0.0040 c3         1 DVE      -0.067700
      8 C11         -0.3670    -3.7590    -0.7130 c3         1 DVE      -0.088100
      9 C1          -0.4890    -1.2620    -0.6990 c3         1 DVE      -0.053700
     10 C15         -0.0280    -1.1870    -2.1580 c3         1 DVE      -0.078400
     11 C14         -0.8140    -0.0590    -2.8210 c3         1 DVE      -0.035200
     12 C13         -0.8350     1.1910    -1.9800 c2         1 DVE      -0.100400
     13 C12         -0.4870     1.2420    -0.7120 c2         1 DVE      -0.109400
     14 C21         -0.4600     2.5090     0.1130 c3         1 DVE      -0.034200
     15 C20         -0.9760     3.7490    -0.6180 c3         1 DVE      -0.073400
     16 C18         -0.5040     3.6300    -2.0560 c3         1 DVE      -0.057000
     17 C19          0.9920     3.3220    -2.1370 c3         1 DVE      -0.088100
     18 C16         -1.3400     2.4400    -2.6370 c3         1 DVE      -0.028800
     19 C17         -2.8270     2.6570    -2.3510 c3         1 DVE      -0.074100
     20 C35         -1.0590     2.5650    -4.1350 c3         1 DVE      -0.069400
     21 C34         -1.1460     4.1000    -4.3710 c3         1 DVE      -0.081400
     22 C22         -0.8710     4.7870    -2.9790 c3         1 DVE      -0.054700
     23 C24          0.3130     5.7480    -3.0860 c3         1 DVE      -0.075700
     24 C33          0.5850     6.3770    -1.7180 c3         1 DVE      -0.094100
     25 C26         -0.0130     6.8490    -4.0970 c3         1 DVE      -0.081400
     26 C27          1.2160     7.7380    -4.2970 c3         1 DVE      -0.043200
     27 C28          0.8940     8.8230    -5.2930 c2         1 DVE      -0.118400
     28 C32          0.4990    10.0000    -4.8750 c2         1 DVE      -0.227000
     29 C29          1.0280     8.5540    -6.7700 c3         1 DVE      -0.035500
     30 C31          2.4750     8.1750    -7.0910 c3         1 DVE      -0.086100
     31 C30          0.1000     7.4030    -7.1640 c3         1 DVE      -0.086100
     32 H1           1.8910     0.7170     0.7280 hc         1 DVE       0.040033
     33 H2           1.8910     0.2720    -0.9840 hc         1 DVE       0.040033
     34 H3           1.8910    -0.9880     0.2570 hc         1 DVE       0.040033
     35 H4          -1.5730    -0.0450     1.4630 hc         1 DVE       0.045700
     36 H5          -0.1520     0.9010     1.9450 hc         1 DVE       0.045700
     37 H6          -0.2720    -1.2430     3.1860 hc         1 DVE       0.049200
     38 H7           1.1650    -1.1740     2.1540 hc         1 DVE       0.049200
     39 H8          -1.4470    -2.5650     1.4770 h1         1 DVE       0.029700
     40 H9          -0.3900    -3.9210     2.8030 ho         1 DVE       0.399000
     41 H10          1.1870    -2.4290    -0.0340 hc         1 DVE       0.069700
     42 H11         -0.4430    -4.5650     0.0070 hc         1 DVE       0.037367
     43 H12         -1.3360    -3.5830    -1.1620 hc         1 DVE       0.037367
     44 H13          0.3450    -4.0290    -1.4830 hc         1 DVE       0.037367
     45 H14         -1.5710    -1.3070    -0.6590 hc         1 DVE       0.056700
     46 H15          1.0320    -0.9680    -2.1970 hc         1 DVE       0.048700
     47 H16         -0.2360    -2.1250    -2.6580 hc         1 DVE       0.048700
     48 H17         -1.8330    -0.3900    -2.9820 hc         1 DVE       0.048700
     49 H18         -0.3590     0.1690    -3.7770 hc         1 DVE       0.048700
     50 H19         -1.0700     2.3550     0.9960 hc         1 DVE       0.047200
     51 H20          0.5610     2.6940     0.4220 hc         1 DVE       0.047200
     52 H21         -0.5630     4.6430    -0.1670 hc         1 DVE       0.048700
     53 H22         -2.0580     3.7750    -0.5850 hc         1 DVE       0.048700
     54 H23          1.4940     3.7410    -1.2740 hc         1 DVE       0.041033
     55 H24          1.4020     3.7570    -3.0400 hc         1 DVE       0.041033
     56 H25          1.1400     2.2490    -2.1550 hc         1 DVE       0.041033
     57 H26         -3.0420     3.7180    -2.3400 hc         1 DVE       0.037033
     58 H27         -3.0760     2.2280    -1.3870 hc         1 DVE       0.037033
     59 H28         -3.4170     2.1760    -3.1220 hc         1 DVE       0.037033
     60 H29         -1.8160     2.0470    -4.7110 hc         1 DVE       0.046200
     61 H30         -0.0680     2.1980    -4.3710 hc         1 DVE       0.046200
     62 H31         -0.3950     4.4060    -5.0890 hc         1 DVE       0.042700
     63 H32         -2.1350     4.3640    -4.7250 hc         1 DVE       0.042700
     64 H33         -1.7580     5.2960    -2.6210 hc         1 DVE       0.057700
     65 H34          1.1910     5.2050    -3.4150 hc         1 DVE       0.061700
     66 H35          1.4210     5.8720    -1.2490 hc         1 DVE       0.035700
     67 H36         -0.2940     6.2770    -1.0940 hc         1 DVE       0.035700
     68 H37          0.8220     7.4260    -1.8430 hc         1 DVE       0.035700
     69 H38         -0.2920     6.4000    -5.0430 hc         1 DVE       0.047700
     70 H39         -0.8360     7.4480    -3.7260 hc         1 DVE       0.047700
     71 H40          1.4960     8.1870    -3.3520 hc         1 DVE       0.048200
     72 H41          2.0380     7.1390    -4.6700 hc         1 DVE       0.048200
     73 H43          0.2680    10.7800    -5.5900 ha         1 DVE       0.112000
     74 H44          0.4040    10.1940    -3.8130 ha         1 DVE       0.112000
     75 H46          0.7560     9.4440    -7.3250 hc         1 DVE       0.052700
     76 H47          3.1480     8.7770    -6.4910 hc         1 DVE       0.035533
     77 H48          2.6320     7.1270    -6.8670 hc         1 DVE       0.035533
     78 H49          2.6710     8.3530    -8.1410 hc         1 DVE       0.035533
     79 H50         -0.0400     7.4030    -8.2380 hc         1 DVE       0.035533
     80 H51         -0.8590     7.5290    -6.6750 hc         1 DVE       0.035533
     81 H52          0.5400     6.4620    -6.8570 hc         1 DVE       0.035533
@<TRIPOS>BOND
     1    31    29 1
     2    30    29 1
     3    29    27 1
     4    28    27 2
     5    27    26 1
     6    26    25 1
     7    25    23 1
     8    23    24 1
     9    23    22 1
    10    17    16 1
    11    21    22 1
    12    21    20 1
    13    22    16 1
    14    20    18 1
    15    16    18 1
    16    16    15 1
    17     1     2 1
    18    10    11 1
    19    10     9 1
    20    11    12 1
    21    18    12 1
    22    18    19 1
    23    12    13 2
    24    15    14 1
    25    13     2 1
    26    13    14 1
    27     2     9 1
    28     2     3 1
    29     9     7 1
    30     7     8 1
    31     7     5 1
    32     3     4 1
    33     4     5 1
    34     5     6 1
    35     1    32 1
    36     1    33 1
    37     1    34 1
    38     3    35 1
    39     3    36 1
    40     4    37 1
    41     4    38 1
    42     5    39 1
    43     6    40 1
    44     7    41 1
    45     8    42 1
    46     8    43 1
    47     8    44 1
    48     9    45 1
    49    10    46 1
    50    10    47 1
    51    11    48 1
    52    11    49 1
    53    14    50 1
    54    14    51 1
    55    15    52 1
    56    15    53 1
    57    17    54 1
    58    17    55 1
    59    17    56 1
    60    19    57 1
    61    19    58 1
    62    19    59 1
    63    20    60 1
    64    20    61 1
    65    21    62 1
    66    21    63 1
    67    22    64 1
    68    23    65 1
    69    24    66 1
    70    24    67 1
    71    24    68 1
    72    25    69 1
    73    25    70 1
    74    26    71 1
    75    26    72 1
    76    28    73 1
    77    28    74 1
    78    29    75 1
    79    30    76 1
    80    30    77 1
    81    30    78 1
    82    31    79 1
    83    31    80 1
    84    31    81 1
@<TRIPOS>SUBSTRUCTURE
     1 DVE         1 TEMP              0 ****  ****    0 ROOT
