@<TRIPOS>MOLECULE
molecule
   24    24     1     0     0
SMALL
bcc


@<TRIPOS>ATOM
      1 C1           0.0000     0.0000     0.0000 c3         1 DVH       0.137100
      2 C2           1.5290     0.0000     0.0000 c3         1 DVH      -0.083400
      3 C3           2.0400     0.0000     1.4430 c3         1 DVH      -0.066400
      4 C4           1.5300    -1.2490     2.1640 c3         1 DVH      -0.034500
      5 C5           0.0000    -1.2500     2.1640 c3         1 DVH      -0.074400
      6 C6          -0.5100    -1.2490     0.7210 c3         1 DVH       0.137100
      7 C7           2.0330    -1.2490     3.5850 c2         1 DVH      -0.165200
      8 C8           2.7860    -2.2310     4.0130 c2         1 DVH      -0.227000
      9 O1          -0.4770     1.1660     0.6740 oh         1 DVH      -0.602800
     10 O2          -0.0340    -2.4160     0.0480 oh         1 DVH      -0.603800
     11 H1          -0.3590    -0.0040    -1.0220 h1         1 DVH       0.031700
     12 H2           1.8890    -0.8860    -0.5090 hc         1 DVH       0.052200
     13 H3           1.8890     0.8860    -0.5090 hc         1 DVH       0.052200
     14 H4           3.1240    -0.0020     1.4410 hc         1 DVH       0.048200
     15 H5           1.6770     0.8840     1.9530 hc         1 DVH       0.048200
     16 H6           1.8900    -2.1330     1.6490 hc         1 DVH       0.066700
     17 H7          -0.3600    -0.3640     2.6740 hc         1 DVH       0.054200
     18 H8          -0.3590    -2.1370     2.6720 hc         1 DVH       0.054200
     19 H9          -1.5930    -1.2450     0.7230 h1         1 DVH       0.032700
     20 H10          1.7710    -0.4370     4.2520 ha         1 DVH       0.122000
     21 H11          3.1470    -2.2310     5.0350 ha         1 DVH       0.111000
     22 H12          3.0470    -3.0430     3.3460 ha         1 DVH       0.111000
     23 H13         -0.9790     1.6930     0.0740 ho         1 DVH       0.400000
     24 H14         -0.7670    -2.9380    -0.2330 ho         1 DVH       0.400000
@<TRIPOS>BOND
     1     9     1 1
     2     1     2 1
     3     1     6 1
     4     2     3 1
     5     6    10 1
     6     6     5 1
     7     3     4 1
     8     5     4 1
     9     4     7 1
    10     7     8 2
    11     1    11 1
    12     2    12 1
    13     2    13 1
    14     3    14 1
    15     3    15 1
    16     4    16 1
    17     5    17 1
    18     5    18 1
    19     6    19 1
    20     7    20 1
    21     8    21 1
    22     8    22 1
    23     9    23 1
    24    10    24 1
@<TRIPOS>SUBSTRUCTURE
     1 DVH         1 TEMP              0 ****  ****    0 ROOT
