@<TRIPOS>MOLECULE
DVJ
   66    71     1     0     0
SMALL
bcc


@<TRIPOS>ATOM
      1 C4           0.0000     0.0000     0.0000 c3         1 DVJ       0.001300
      2 C6           0.3350     1.6620     1.8200 cc         1 DVJ      -0.217600
      3 C11         -2.5650     4.3990     3.2300 cc         1 DVJ      -0.055200
      4 C7          -0.3980     2.5890     2.4610 cd         1 DVJ      -0.334300
      5 C8          -1.6950     2.5630     1.9170 cd         1 DVJ       0.480200
      6 C12         -3.2760     4.4300     4.3950 cd         1 DVJ      -0.229600
      7 C13         -3.0580     5.4750     5.3170 cd         1 DVJ       0.462200
      8 N2           2.0300     0.0000     1.3830 n3         1 DVJ      -0.552600
      9 C3           1.5340     0.0000     0.0000 c3         1 DVJ       0.134800
     10 C1           3.4560    -0.3510     1.4310 c3         1 DVJ       0.191100
     11 N5          -0.4590     1.0660     0.8970 na         1 DVJ       0.501400
     12 N9          -1.7250     1.6430     0.9770 nc         1 DVJ      -0.699800
     13 N10         -2.7670     3.3740     2.3060 nu         1 DVJ      -0.283700
     14 N14         -2.1800     6.4180     5.0620 nc         1 DVJ      -0.542300
     15 N15         -1.4390     6.4070     3.8740 ns         1 DVJ       0.128100
     16 C17         -1.6230     5.4270     2.9670 c          1 DVJ       0.555700
     17 O18         -0.9770     5.4190     1.9320 o          1 DVJ      -0.674500
     18 C19         -3.8300     5.5100     6.5840 ca         1 DVJ      -0.100900
     19 C20         -3.1740     5.3670     7.8050 ca         1 DVJ      -0.087000
     20 C21         -3.8930     5.4000     8.9840 ca         1 DVJ      -0.081000
     21 C22         -5.2630     5.5750     8.9570 ca         1 DVJ      -0.112000
     22 C23         -5.9260     5.7180     7.7440 ca         1 DVJ      -0.080400
     23 C24         -5.2100     5.6930     6.5560 ca         1 DVJ      -0.109300
     24 C25         -5.9260     5.8490     5.2400 c3         1 DVJ       0.004900
     25 C26         -5.8910     7.3170     4.8100 c3         1 DVJ       0.222400
     26 O27         -6.5700     7.4650     3.5610 oh         1 DVJ      -0.597800
     27 N28         -7.3120     5.9010     7.7210 ns         1 DVJ      -0.028100
     28 C29         -7.9440     6.4020     8.8010 c          1 DVJ       0.621300
     29 O30         -7.2990     6.7850     9.7590 o          1 DVJ      -0.631100
     30 C31         -9.4110     6.4840     8.8220 cc         1 DVJ      -0.098600
     31 C32        -10.1310     6.9630     9.8420 cd         1 DVJ       0.001800
     32 C33        -11.5230     6.9530     9.6590 ca         1 DVJ      -0.103800
     33 C34        -12.5380     7.3890    10.5420 ca         1 DVJ      -0.043000
     34 C35        -13.8480     7.3010    10.1870 ca         1 DVJ      -0.107000
     35 C36        -14.2130     6.7830     8.9500 ca         1 DVJ      -0.076000
     36 C37        -13.2500     6.3520     8.0690 ca         1 DVJ      -0.064000
     37 C38        -11.8970     6.4320     8.4120 ca         1 DVJ       0.048900
     38 S39        -10.4570     5.9750     7.5090 ss         1 DVJ      -0.211500
     39 C40          1.7830     1.2980     2.0370 c3         1 DVJ       0.247100
     40 H1          -0.3410     0.2270    -1.0030 h1         1 DVJ       0.038200
     41 H2          -0.3410    -0.9490     0.3950 h1         1 DVJ       0.038200
     42 H3          -0.0510     3.2400     3.2550 ha         1 DVJ       0.137000
     43 H4          -4.0010     3.6550     4.6110 ha         1 DVJ       0.133000
     44 H6           1.8930    -0.8860    -0.5100 h1         1 DVJ       0.020700
     45 H7           1.8930     0.8860    -0.5100 h1         1 DVJ       0.020700
     46 H8           4.0210     0.3510     0.8290 h1         1 DVJ       0.003033
     47 H9           3.5950    -1.3530     1.0430 h1         1 DVJ       0.003033
     48 H10          3.8040    -0.3090     2.4560 h1         1 DVJ       0.003033
     49 H11         -3.6710     3.2370     1.9010 hn         1 DVJ       0.291800
     50 H16         -0.7740     7.1340     3.6940 hn         1 DVJ       0.205500
     51 H12         -2.1000     5.2300     7.8290 ha         1 DVJ       0.111000
     52 H13         -3.3810     5.2880     9.9320 ha         1 DVJ       0.107000
     53 H14         -5.8230     5.5970     9.8840 ha         1 DVJ       0.159000
     54 H15         -5.4360     5.2410     4.4880 hc         1 DVJ       0.030700
     55 H17         -6.9550     5.5280     5.3480 hc         1 DVJ       0.030700
     56 H18         -6.3820     7.9250     5.5620 h1         1 DVJ      -0.006800
     57 H19         -4.8620     7.6380     4.7030 h1         1 DVJ      -0.006800
     58 H20         -6.6660     8.3820     3.3620 ho         1 DVJ       0.395000
     59 H21         -7.8210     5.7470     6.8730 hn         1 DVJ       0.188500
     60 H22         -9.6710     7.3350    10.7500 ha         1 DVJ       0.138000
     61 H23        -12.2700     7.7950    11.5100 ha         1 DVJ       0.107000
     62 H24        -14.6140     7.6380    10.8740 ha         1 DVJ       0.108000
     63 H25        -15.2600     6.7190     8.6800 ha         1 DVJ       0.107000
     64 H26        -13.5400     5.9500     7.1060 ha         1 DVJ       0.113000
     65 H27          1.9840     1.2160     3.0980 h1         1 DVJ       0.023200
     66 H28          2.4200     2.0550     1.5960 h1         1 DVJ       0.023200
@<TRIPOS>BOND
     1     1     9 1   
     2     1    11 1   
     3     1    40 1   
     4     1    41 1   
     5     2     4 2   
     6     2    11 1   
     7     2    39 1   
     8     3     6 2   
     9     3    13 1   
    10     3    16 1   
    11     4     5 1   
    12     4    42 1   
    13     5    12 2   
    14     5    13 1   
    15     6     7 1   
    16     6    43 1   
    17     7    14 2   
    18     7    18 1   
    19     8     9 1   
    20     8    10 1   
    21     8    39 1   
    22     9    44 1   
    23     9    45 1   
    24    10    46 1   
    25    10    47 1   
    26    10    48 1   
    27    11    12 1   
    28    13    49 1   
    29    14    15 1   
    30    15    16 1   
    31    15    50 1   
    32    16    17 2   
    33    18    19 ar  
    34    18    23 ar  
    35    19    20 ar  
    36    19    51 1   
    37    20    21 ar  
    38    20    52 1   
    39    21    22 ar  
    40    21    53 1   
    41    22    23 ar  
    42    22    27 1   
    43    23    24 1   
    44    24    25 1   
    45    24    54 1   
    46    24    55 1   
    47    25    26 1   
    48    25    56 1   
    49    25    57 1   
    50    26    58 1   
    51    27    28 1   
    52    27    59 1   
    53    28    29 2   
    54    28    30 1   
    55    30    31 2   
    56    30    38 1   
    57    31    32 1   
    58    31    60 1   
    59    32    33 ar  
    60    32    37 ar  
    61    33    34 ar  
    62    33    61 1   
    63    34    35 ar  
    64    34    62 1   
    65    35    36 ar  
    66    35    63 1   
    67    36    37 ar  
    68    36    64 1   
    69    37    38 1   
    70    39    65 1   
    71    39    66 1   
@<TRIPOS>SUBSTRUCTURE
     1 DVJ         1 TEMP              0 ****  ****    0 ROOT
