@<TRIPOS>MOLECULE
molecule
   38    38     1     0     0
SMALL
bcc


@<TRIPOS>ATOM
      1 C1           0.0000     0.0000     0.0000 c3         1 DVK       0.161800
      2 C10         -4.3950    -4.0450     1.7270 c3         1 DVK       0.090800
      3 C2          -0.0000    -1.1790     2.1130 c3         1 DVK       0.161800
      4 C3           1.5310     0.0000     0.0000 c3         1 DVK       0.164300
      5 C4           1.5300    -1.1800     2.1130 c3         1 DVK       0.164300
      6 C7          -2.4110    -2.6110     1.2280 c3         1 DVK      -0.077400
      7 C8          -3.9390    -2.6900     1.1840 c3         1 DVK      -0.113400
      8 C9           3.9410     1.4310     0.8850 c3         1 DVK       0.142400
      9 N1          -0.4880    -1.1800     0.7270 n3         1 DVK      -0.732600
     10 N2           2.0170     0.0000     1.3860 n3         1 DVK      -0.716600
     11 N3          -5.8610    -4.1220     1.6850 nz         1 DVK      -0.810600
     12 O1           3.4830     2.4700     1.7520 oh         1 DVK      -0.595800
     13 H1          -0.3600     0.8980     0.4880 h1         1 DVK       0.042200
     14 H2          -0.3600    -0.0320    -1.0210 h1         1 DVK       0.042200
     15 H3          -4.0570    -4.1560     2.7510 hx         1 DVK       0.113700
     16 H4          -3.9740    -4.8380     1.1200 hx         1 DVK       0.113700
     17 H5          -0.3610    -2.0650     2.6220 h1         1 DVK       0.042200
     18 H6          -0.3600    -0.2930     2.6210 h1         1 DVK       0.042200
     19 H7           1.8910    -0.8860    -0.5080 h1         1 DVK       0.046200
     20 H8           1.8910     0.8860    -0.5080 h1         1 DVK       0.046200
     21 H9           1.8900    -1.1480     3.1340 h1         1 DVK       0.046200
     22 H10          1.8890    -2.0780     1.6250 h1         1 DVK       0.046200
     23 H11         -2.2930    -1.1440    -0.3380 h1         1 DVK       0.039200
     24 H12         -2.3750    -0.4630     1.2920 h1         1 DVK       0.039200
     25 H13          3.8230    -0.0360     2.4510 h1         1 DVK       0.045700
     26 H14          3.9040    -0.7170     0.8210 h1         1 DVK       0.045700
     27 H15         -2.0730    -2.7220     2.2510 hc         1 DVK       0.065200
     28 H16         -1.9910    -3.4030     0.6200 hc         1 DVK       0.065200
     29 H17         -4.3590    -1.8970     1.7910 hc         1 DVK       0.065200
     30 H18         -4.2770    -2.5790     0.1600 hc         1 DVK       0.065200
     31 H19          3.5370     1.5860    -0.1080 h1         1 DVK       0.025700
     32 H20          5.0230     1.4470     0.8420 h1         1 DVK       0.025700
     33 H23         -6.1600    -5.0050     2.0480 hn         1 DVK       0.456467
     34 H24         -6.1730    -4.0280     0.7390 hn         1 DVK       0.456467
     35 H26          4.0320     3.2300     1.6490 ho         1 DVK       0.401000
     36 C5          -1.9550    -1.2550     0.6850 c3         1 DVK       0.167800
     37 C6           3.4840     0.0760     1.4280 c3         1 DVK       0.161800
     38 H33         -6.2500    -3.3840     2.2390 hn         1 DVK       0.456467
@<TRIPOS>BOND
     1     8    37 1
     2     8    12 1
     3    37    10 1
     4    10     5 1
     5    10     4 1
     6     5     3 1
     7     4     1 1
     8     3     9 1
     9     1     9 1
    10     9    36 1
    11    36     6 1
    12     7     6 1
    13     7     2 1
    14    11     2 1
    15     1    13 1
    16     1    14 1
    17     2    15 1
    18     2    16 1
    19     3    17 1
    20     3    18 1
    21     4    19 1
    22     4    20 1
    23     5    21 1
    24     5    22 1
    25    36    23 1
    26    36    24 1
    27    37    25 1
    28    37    26 1
    29     6    27 1
    30     6    28 1
    31     7    29 1
    32     7    30 1
    33     8    31 1
    34     8    32 1
    35    11    33 1
    36    11    34 1
    37    12    35 1
    38    38    11 1
@<TRIPOS>SUBSTRUCTURE
     1 DVK         1 TEMP              0 ****  ****    0 ROOT
