@<TRIPOS>MOLECULE
DVP
   56    59     1     0     0
SMALL
bcc


@<TRIPOS>ATOM
      1 CAY          0.0000     0.0000     0.0000 c3         1 DVP       0.277700
      2 OAX          1.4520     0.0000     0.0000 os         1 DVP      -0.424900
      3 CAW          2.1240     0.0000     1.1620 c          1 DVP       0.701100
      4 OBF          1.5200     0.0010     2.2090 o          1 DVP      -0.585000
      5 CAV          3.6310    -0.0010     1.1620 c3         1 DVP      -0.094700
      6 CAU          4.1400    -0.0010     2.6060 c3         1 DVP      -0.034400
      7 CAT          5.6720     0.0340     2.6020 c3         1 DVP       0.037000
      8 CAI          4.1390    -1.2500     0.4400 c3         1 DVP      -0.034400
      9 CAH          5.6720    -1.2300     0.4120 c3         1 DVP       0.037000
     10 NAG          6.1680    -1.0840     1.7860 n          1 DVP      -0.156800
     11 CAF          7.0620    -1.9570     2.2900 c          1 DVP       0.625700
     12 OAA          7.3770    -2.9430     1.6510 o          1 DVP      -0.652100
     13 CAE          7.6580    -1.7190     3.6190 ca         1 DVP      -0.222600
     14 CAS          7.8360    -2.7830     4.5080 ca         1 DVP      -0.010000
     15 CAR          8.3920    -2.5580     5.7460 ca         1 DVP      -0.204500
     16 CAD          8.0520    -0.4290     3.9880 ca         1 DVP      -0.010000
     17 CAC          8.6040    -0.2100     5.2300 ca         1 DVP      -0.204500
     18 CAQ          8.7790    -1.2720     6.1130 ca         1 DVP       0.085600
     19 N10          9.3420    -1.0470     7.3650 nu         1 DVP      -0.414600
     20 C9           9.7490     0.3060     7.7530 c3         1 DVP       0.137500
     21 C6          10.3240     0.2770     9.1450 ca         1 DVP       0.151300
     22 C7          11.7040     0.1680     9.3210 ca         1 DVP       0.364900
     23 N8          12.2290     0.1430    10.5270 nb         1 DVP      -0.556000
     24 C8A         11.4320     0.2200    11.5950 ca         1 DVP       0.604000
     25 N1          11.9150     0.1970    12.8430 nb         1 DVP      -0.749000
     26 C2          11.1120     0.2740    13.8850 ca         1 DVP       0.773900
     27 N2          11.6740     0.2450    15.1480 nv         1 DVP      -0.477500
     28 N3           9.7910     0.3800    13.7870 nb         1 DVP      -0.789000
     29 C4           9.1890     0.4130    12.6060 ca         1 DVP       0.530900
     30 N4           7.8190     0.5230    12.5070 nv         1 DVP      -0.447500
     31 C4A         10.0310     0.3300    11.4110 ca         1 DVP      -0.012000
     32 N5           9.5210     0.3610    10.1840 nb         1 DVP      -0.475000
     33 HAY1        -0.3610     0.8670     0.5400 h1         1 DVP       0.000033
     34 HAY2        -0.3610     0.0340    -1.0210 h1         1 DVP       0.000033
     35 HAY3        -0.3610    -0.9010     0.4810 h1         1 DVP       0.000033
     36 HAV          3.9970     0.8830     0.6530 hc         1 DVP       0.046700
     37 HAU1         3.7620     0.8740     3.1210 hc         1 DVP       0.034700
     38 HAU2         3.8010    -0.8990     3.1080 hc         1 DVP       0.034700
     39 HAT1         6.0390    -0.0680     3.6160 h1         1 DVP       0.036450
     40 HAT2         6.0120     0.9710     2.1780 h1         1 DVP       0.036450
     41 HAI1         3.7600    -1.2590    -0.5750 hc         1 DVP       0.034700
     42 HAI2         3.8000    -2.1340     0.9660 hc         1 DVP       0.034700
     43 HAH1         6.0120    -0.3940    -0.1870 h1         1 DVP       0.036450
     44 HAH2         6.0390    -2.1580    -0.0090 h1         1 DVP       0.036450
     45 HAS          7.5350    -3.7840     4.2230 ha         1 DVP       0.111500
     46 HAR          8.5300    -3.3820     6.4350 ha         1 DVP       0.114500
     47 HAD          7.9160     0.3970     3.3010 ha         1 DVP       0.111500
     48 HAC          8.9080     0.7890     5.5180 ha         1 DVP       0.114500
     49 H10          9.4570    -1.8070     8.0060 hn         1 DVP       0.297800
     50 H91          8.8880     0.9620     7.7310 h1         1 DVP       0.022200
     51 H92         10.4980     0.6700     7.0600 h1         1 DVP       0.022200
     52 H7          12.3500     0.1050     8.4540 h4         1 DVP      -0.009900
     53 HN21        12.6660     0.1670    15.2520 hn         1 DVP       0.276300
     54 HN22        11.0880     0.3030    15.9570 hn         1 DVP       0.276300
     55 HN41         7.3830     0.5470    11.6060 hn         1 DVP       0.279800
     56 HN42         7.2600     0.5790    13.3350 hn         1 DVP       0.279800
@<TRIPOS>BOND
     1     1     2 1   
     2     1    33 1   
     3     1    34 1   
     4     1    35 1   
     5     2     3 1   
     6     3     4 2   
     7     3     5 1   
     8     5     6 1   
     9     5     8 1   
    10     5    36 1   
    11     6     7 1   
    12     6    37 1   
    13     6    38 1   
    14     7    10 1   
    15     7    39 1   
    16     7    40 1   
    17     8     9 1   
    18     8    41 1   
    19     8    42 1   
    20     9    10 1   
    21     9    43 1   
    22     9    44 1   
    23    10    11 1   
    24    11    12 2   
    25    11    13 1   
    26    13    14 ar  
    27    13    16 ar  
    28    14    15 ar  
    29    14    45 1   
    30    15    18 ar  
    31    15    46 1   
    32    16    17 ar  
    33    16    47 1   
    34    17    18 ar  
    35    17    48 1   
    36    18    19 1   
    37    19    20 1   
    38    19    49 1   
    39    20    21 1   
    40    20    50 1   
    41    20    51 1   
    42    21    22 ar  
    43    21    32 ar  
    44    22    23 ar  
    45    22    52 1   
    46    23    24 ar  
    47    24    25 ar  
    48    24    31 ar  
    49    25    26 ar  
    50    26    27 1   
    51    26    28 ar  
    52    27    53 1   
    53    27    54 1   
    54    28    29 ar  
    55    29    30 1   
    56    29    31 ar  
    57    30    55 1   
    58    30    56 1   
    59    31    32 ar  
@<TRIPOS>SUBSTRUCTURE
     1 DVP         1 TEMP              0 ****  ****    0 ROOT
