@<TRIPOS>MOLECULE
molecule
   30    30     1     0     0
SMALL
bcc


@<TRIPOS>ATOM
      1 C05          0.0000     0.0000     0.0000 c3         1 DVQ       0.139800
      2 C06          0.0000     1.1810     2.1130 c3         1 DVQ       0.139800
      3 C07          1.5310     0.0000     0.0000 c3         1 DVQ       0.139800
      4 C08          1.5300     1.1820     2.1130 c3         1 DVQ       0.139800
      5 C11         -2.4100     2.6130     1.2260 c3         1 DVQ       0.144400
      6 C12          2.5300    -2.3850     1.6030 c3         1 DVQ       0.144400
      7 N03         -0.4870     1.1810     0.7260 n3         1 DVQ      -0.706600
      8 N04          2.0180     0.0000     1.3870 n3         1 DVQ      -0.706600
      9 O01         -1.9520     3.6520     0.3580 oh         1 DVQ      -0.591300
     10 O02          3.8820    -2.1270     1.9910 oh         1 DVQ      -0.591300
     11 H052        -0.3600    -0.8970     0.4880 h1         1 DVQ       0.049700
     12 H051        -0.3600     0.0310    -1.0210 h1         1 DVQ       0.049700
     13 H062        -0.3600     0.2940     2.6210 h1         1 DVQ       0.049700
     14 H061        -0.3600     2.0670     2.6210 h1         1 DVQ       0.049700
     15 H072         1.8910     0.8860    -0.5080 h1         1 DVQ       0.049700
     16 H071         1.8910    -0.8860    -0.5080 h1         1 DVQ       0.049700
     17 H082         1.8900     1.1510     3.1340 h1         1 DVQ       0.049700
     18 H081         1.8900     2.0790     1.6240 h1         1 DVQ       0.049700
     19 H092        -2.3750     0.4650     1.2910 h1         1 DVQ       0.041450
     20 H091        -2.2920     1.1460    -0.3400 h1         1 DVQ       0.041450
     21 H102         0.6010    -1.4710     1.8580 h1         1 DVQ       0.041450
     22 H101         1.7560    -1.1060     3.1480 h1         1 DVQ       0.041450
     23 H112        -2.0120     2.7730     2.2210 h1         1 DVQ       0.020450
     24 H111        -3.4920     2.6260     1.2640 h1         1 DVQ       0.020450
     25 H121         2.4720    -2.4610     0.5240 h1         1 DVQ       0.020450
     26 H122         2.1970    -3.3140     2.0490 h1         1 DVQ       0.020450
     27 H011        -2.5050     4.4090     0.4550 ho         1 DVQ       0.393500
     28 H021         4.3780    -2.9280     1.9540 ho         1 DVQ       0.393500
     29 C09         -1.9550     1.2570     0.6830 c3         1 DVQ       0.156800
     30 C10          1.6360    -1.2380     2.0790 c3         1 DVQ       0.156800
@<TRIPOS>BOND
     1     6    10 1
     2     6    30 1
     3    30     8 1
     4     3     8 1
     5     3     1 1
     6     8     4 1
     7     4     2 1
     8     1     7 1
     9     2     7 1
    10     7    29 1
    11    29     5 1
    12     9     5 1
    13     1    11 1
    14     1    12 1
    15     2    13 1
    16     2    14 1
    17     3    15 1
    18     3    16 1
    19     4    17 1
    20     4    18 1
    21    29    19 1
    22    29    20 1
    23    30    21 1
    24    30    22 1
    25     5    23 1
    26     5    24 1
    27     6    25 1
    28     6    26 1
    29     9    27 1
    30    10    28 1
@<TRIPOS>SUBSTRUCTURE
     1 DVQ         1 TEMP              0 ****  ****    0 ROOT
