@<TRIPOS>MOLECULE
molecule
   41    42     1     0     0
SMALL
bcc


@<TRIPOS>ATOM
      1 S1           0.0000     0.0000     0.0000 s6         1 DVR       1.028000
      2 C2           1.7660     0.0000     0.0000 c3         1 DVR      -0.126400
      3 C3           2.2490     0.0000     1.4360 ce         1 DVR      -0.325200
      4 C4           2.5300     1.1420     2.1190 cf         1 DVR       0.276800
      5 N5           2.3850     2.4360     1.6950 nu         1 DVR      -0.590800
      6 C6           2.6730     3.6110     2.3920 cc         1 DVR       0.110900
      7 C7           1.8700     4.3420     3.1960 cd         1 DVR      -0.162200
      8 C8           0.4990     4.0590     3.5190 c          1 DVR       0.610100
      9 C9           2.6500     5.4330     3.6500 cd         1 DVR      -0.141000
     10 C10          2.4770    -1.3160     2.0650 ce         1 DVR       0.170000
     11 C11          2.2510    -2.5250     1.5280 cf         1 DVR      -0.436200
     12 C12          2.5360    -3.7560     2.3140 c          1 DVR       0.497300
     13 N12          2.2450    -4.9050     1.6150 nz         1 DVR      -0.677400
     14 O12          2.9800    -3.7410     3.4580 o          1 DVR      -0.459100
     15 O8          -0.1960     4.7680     4.2670 o          1 DVR      -0.548100
     16 C4A          3.0670     1.0360     3.5040 c          1 DVR       0.847800
     17 O4A          2.0430     1.0370     4.3900 o          1 DVR      -0.764300
     18 O4B          4.2470     0.9720     3.8060 o          1 DVR      -0.764300
     19 O1A         -0.4570    -1.2650     0.5430 o          1 DVR      -0.598800
     20 O1B         -0.4580     1.2640     0.5440 o          1 DVR      -0.598800
     21 CG           3.9030     5.3060     3.0910 cc         1 DVR      -0.055300
     22 CD1          5.1070     6.0640     3.1570 cc         1 DVR      -0.085000
     23 ND2          3.9090     4.1590     2.3020 na         1 DVR       0.058700
     24 CE1          6.1900     5.6540     2.4690 cd         1 DVR      -0.151000
     25 CE2          5.0300     3.7320     1.5880 cc         1 DVR      -0.060300
     26 CZ           6.1620     4.4510     1.6530 cd         1 DVR      -0.171000
     27 HS1         -0.3960     0.0000    -1.2670 hs         1 DVR       0.035800
     28 HC21         2.1300     0.8850    -0.5070 h1         1 DVR       0.088200
     29 HC22         2.1300    -0.8860    -0.5070 h1         1 DVR       0.088200
     30 HN5          2.0280     2.5540     0.7670 hn         1 DVR       0.420800
     31 HC8          0.0520     3.1740     3.0830 h4         1 DVR       0.024200
     32 HC9          2.3220     6.2230     4.3150 ha         1 DVR       0.173000
     33 H10          2.8670    -1.2900     3.0750 ha         1 DVR       0.183000
     34 H11          1.8580    -2.6050     0.5210 ha         1 DVR       0.131000
     35 H121         2.7990    -4.9380     0.7820 hn         1 DVR       0.459133
     36 H122         1.2740    -4.9110     1.3710 hn         1 DVR       0.459133
     37 HD1          5.1380     6.9550     3.7730 ha         1 DVR       0.147000
     38 HE1          7.1220     6.2060     2.4940 ha         1 DVR       0.132000
     39 HE2          5.1540     2.9890     0.8090 h4         1 DVR       0.168000
     40 HCZ          7.1050     4.2470     1.1620 ha         1 DVR       0.149000
     41 H123         2.4360    -5.7030     2.1890 hn         1 DVR       0.459133
@<TRIPOS>BOND
     1     1     2 1
     2     1    19 2
     3     1    20 2
     4     1    27 1
     5     2     3 1
     6     2    28 1
     7     2    29 1
     8     3     4 2
     9     3    10 1
    10     4     5 1
    11     4    16 1
    12     5     6 1
    13     5    30 1
    14     6     7 2
    15     6    23 1
    16     7     8 1
    17     7     9 1
    18     8    15 2
    19     8    31 1
    20     9    21 2
    21     9    32 1
    22    10    11 2
    23    10    33 1
    24    11    12 1
    25    11    34 1
    26    12    13 1
    27    12    14 2
    28    13    35 1
    29    13    36 1
    30    16    17 1
    31    16    18 1
    32    21    22 1
    33    21    23 1
    34    22    24 2
    35    22    37 1
    36    23    25 1
    37    24    26 1
    38    24    38 1
    39    25    26 2
    40    25    39 1
    41    26    40 1
    42    41    13 1
@<TRIPOS>SUBSTRUCTURE
     1 DVR         1 TEMP              0 ****  ****    0 ROOT
