@<TRIPOS>MOLECULE
DVR
   41    44     1     0     0
SMALL
bcc


@<TRIPOS>ATOM
      1 S1           0.0000     0.0000     0.0000 s6         1 DVR       2.300000
      2 C2           1.7660     0.0000     0.0000 c3         1 DVR      -0.535000
      3 C3           2.2490     0.0000     1.4360 c3         1 DVR      -0.118000
      4 C4           2.5300     1.1420     2.1190 c2         1 DVR      -0.022000
      5 N5           2.3850     2.4360     1.6950 nu         1 DVR       0.353000
      6 C6           2.6730     3.6110     2.3920 c2         1 DVR      -0.345000
      7 C7           1.8700     4.3420     3.1960 c2         1 DVR      -0.136000
      8 C8           0.4990     4.0590     3.5190 c2         1 DVR       0.349000
      9 C9           2.6500     5.4330     3.6500 c2         1 DVR      -0.096000
     10 C10          2.4770    -1.3160     2.0650 c2         1 DVR       0.036000
     11 C11          2.2510    -2.5250     1.5280 c2         1 DVR      -0.321000
     12 C12          2.5360    -3.7560     2.3140 c3         1 DVR      -0.006000
     13 N12          2.2450    -4.9050     1.6150 nz         1 DVR       0.807000
     14 O12          2.9800    -3.7410     3.4580 o          1 DVR      -0.262000
     15 O8          -0.1960     4.7680     4.2670 o          1 DVR      -0.337000
     16 C4A          3.0670     1.0360     3.5040 c2         1 DVR       0.405000
     17 O4A          2.0430     1.0370     4.3900 o          1 DVR      -0.533500
     18 O4B          4.2470     0.9720     3.8060 o          1 DVR      -0.533500
     19 O1A         -0.4570    -1.2650     0.5430 o          1 DVR      -0.863000
     20 O1B         -0.4580     1.2640     0.5440 o          1 DVR      -0.863000
     21 CG           3.9030     5.3060     3.0910 c2         1 DVR      -0.230000
     22 CD1          5.1070     6.0640     3.1570 c2         1 DVR      -0.013000
     23 ND2          3.9090     4.1590     2.3020 na         1 DVR       0.580000
     24 CE1          6.1900     5.6540     2.4690 c2         1 DVR      -0.159000
     25 CE2          5.0300     3.7320     1.5880 c2         1 DVR      -0.254000
     26 CZ           6.1620     4.4510     1.6530 c2         1 DVR      -0.093000
     27 HS1         -0.3960     0.0000    -1.2670 hs         1 DVR      -0.276000
     28 HC21         2.1300    -0.8850    -0.5070 h1         1 DVR       0.103000
     29 HC22         2.1300     0.8850    -0.5070 h1         1 DVR       0.103000
     30 HN5          2.0280     2.5540     0.7670 hn         1 DVR       0.038000
     31 HC8          0.0510     3.1750     3.0810 h4         1 DVR       0.077000
     32 HC9          2.3220     6.2230     4.3150 ha         1 DVR       0.144000
     33 H10          2.8580    -1.0270     1.0930 DU         1 DVR       0.094000
     34 H11          3.2410    -2.9380     1.6780 DU         1 DVR       0.060000
     35 H121         2.9140    -5.0280     0.8810 hn         1 DVR       0.020667
     36 H122         1.3280    -4.8330     1.2220 hn         1 DVR       0.020667
     37 HD1          5.2110     6.9670     3.7470 ha         1 DVR       0.114000
     38 HE1          7.1220     6.2070     2.4960 ha         1 DVR       0.110000
     39 HE2          5.2430     3.0070     0.8120 h4         1 DVR       0.149000
     40 HCZ          7.0790     4.2200     1.1260 ha         1 DVR       0.115000
     41 H123         2.2670    -5.6890     2.2380 hn         1 DVR       0.020667
@<TRIPOS>BOND
     1     1     2 1   
     2     1    19 1   
     3     1    20 1   
     4     1    27 1   
     5     2     3 1   
     6     2    28 1   
     7     2    29 1   
     8     3     4 1   
     9     3    10 1   
    10     3    33 1   
    11     4     5 1   
    12     4    16 1   
    13     5     6 1   
    14     5    30 1   
    15     6     7 1   
    16     6    23 1   
    17     7     8 1   
    18     7     9 1   
    19     8    15 1   
    20     8    31 1   
    21     9    21 1   
    22     9    32 1   
    23    10    11 1   
    24    10    33 1   
    25    11    12 1   
    26    11    34 1   
    27    12    13 1   
    28    12    14 1   
    29    12    34 1   
    30    13    35 1   
    31    13    36 1   
    32    13    41 1   
    33    16    17 1   
    34    16    18 1   
    35    21    22 1   
    36    21    23 1   
    37    22    24 1   
    38    22    37 1   
    39    23    25 1   
    40    24    26 1   
    41    24    38 1   
    42    25    26 1   
    43    25    39 1   
    44    26    40 1   
@<TRIPOS>SUBSTRUCTURE
     1 DVR         1 TEMP              0 ****  ****    0 ROOT
