@<TRIPOS>MOLECULE
DW0
   49    52     1     0     0
SMALL
bcc


@<TRIPOS>ATOM
      1 N1           0.0000     0.0000     0.0000 n          1 DW0      -0.080900
      2 C2           1.3440     0.0000     0.0000 c          1 DW0       0.595500
      3 O2           1.9370     0.0020    -1.0610 o          1 DW0      -0.699500
      4 N3           2.0510     0.0000     1.1460 n          1 DW0      -0.004800
      5 C4           1.3960    -0.0020     2.3670 cc         1 DW0       0.326700
      6 C5           0.0060    -0.0010     2.3830 cd         1 DW0      -0.554200
      7 C6          -0.6950    -0.0010     1.1570 c          1 DW0       0.684600
      8 O6          -1.9130    -0.0000     1.1450 o          1 DW0      -0.684500
      9 N7          -0.3650    -0.0030     3.7120 na         1 DW0       0.382600
     10 C8           0.7700    -0.0030     4.4380 cd         1 DW0       0.258900
     11 N9           1.8060    -0.0030     3.6380 nc         1 DW0      -0.630500
     12 N10         -1.9670    -2.8050    -3.4900 n          1 DW0      -0.080900
     13 CA0         -1.7270    -1.4260    -3.0580 c3         1 DW0       0.045000
     14 CAA         -1.7340    -0.0030     4.2340 c3         1 DW0      -0.022400
     15 CAC          3.5160    -0.0000     1.1020 c3         1 DW0       0.066800
     16 CAJ         -3.9830    -6.8000    -3.9960 cc         1 DW0       0.258900
     17 CAK         -0.7220     0.0070    -1.2740 c3         1 DW0       0.045000
     18 CAL         -0.9730    -1.4330    -1.7260 c3         1 DW0      -0.067400
     19 NAN         -2.8240    -6.6220    -4.5790 nd         1 DW0      -0.630500
     20 CAP         -3.0990    -3.4330    -3.1080 c          1 DW0       0.684600
     21 CAR         -1.0600    -3.4220    -4.2660 c          1 DW0       0.595500
     22 CAT         -2.3760    -5.3890    -4.3260 cd         1 DW0       0.326700
     23 CAV         -3.3240    -4.7610    -3.5280 cc         1 DW0      -0.554200
     24 NAX         -4.3350    -5.6810    -3.3330 na         1 DW0       0.382600
     25 NAZ         -1.2380    -4.6880    -4.6890 n          1 DW0      -0.004800
     26 H8           0.8180    -0.0040     5.5200 h5         1 DW0       0.028100
     27 HA0         -2.6740    -0.9160    -2.9340 h1         1 DW0       0.051450
     28 HA0A        -1.1350    -0.9110    -3.8050 h1         1 DW0       0.051450
     29 HAA         -1.7080     0.0090     5.3170 h1         1 DW0       0.034533
     30 HAAA        -2.2570     0.8750     3.8750 h1         1 DW0       0.034533
     31 HAAB        -2.2490    -0.8940     3.8950 h1         1 DW0       0.034533
     32 HAB         -6.1660    -6.3760    -2.5950 h1         1 DW0       0.034533
     33 HABA        -5.3030    -5.2620    -1.5260 h1         1 DW0       0.034533
     34 HABB        -6.1180    -4.6480    -2.9710 h1         1 DW0       0.034533
     35 HAC          3.9070     0.1110     2.1060 h1         1 DW0       0.026367
     36 HACA         3.8640    -0.9350     0.6800 h1         1 DW0       0.026367
     37 HACB         3.8590     0.8240     0.4880 h1         1 DW0       0.026367
     38 HAD         -0.6250    -6.2430    -5.9490 h1         1 DW0       0.026367
     39 HADA         0.6530    -5.5490    -4.9410 h1         1 DW0       0.026367
     40 HADB         0.0470    -4.6540    -6.3410 h1         1 DW0       0.026367
     41 HAJ         -4.5690    -7.7100    -4.0400 h5         1 DW0       0.028100
     42 HAK         -0.1300     0.5220    -2.0210 h1         1 DW0       0.051450
     43 HAKA        -1.6690     0.5170    -1.1490 h1         1 DW0       0.051450
     44 HAL         -1.5650    -1.9480    -0.9790 hc         1 DW0       0.037200
     45 HALA        -0.0250    -1.9430    -1.8500 hc         1 DW0       0.037200
     46 CAB         -5.5600    -5.4780    -2.5560 c3         1 DW0      -0.022400
     47 CAD         -0.2250    -5.3250    -5.5350 c3         1 DW0       0.066800
     48 OAF         -3.9150    -2.8610    -2.4090 o          1 DW0      -0.684500
     49 OAH         -0.0540    -2.8230    -4.5950 o          1 DW0      -0.699500
@<TRIPOS>BOND
     1     1     2 1   
     2     1     7 1   
     3     1    17 1   
     4     2     3 2   
     5     2     4 1   
     6     4     5 1   
     7     4    15 1   
     8     5     6 2   
     9     5    11 1   
    10     6     7 1   
    11     6     9 1   
    12     7     8 2   
    13     9    10 1   
    14     9    14 1   
    15    10    11 2   
    16    10    26 1   
    17    12    13 1   
    18    12    20 1   
    19    12    21 1   
    20    13    18 1   
    21    13    27 1   
    22    13    28 1   
    23    14    29 1   
    24    14    30 1   
    25    14    31 1   
    26    15    35 1   
    27    15    36 1   
    28    15    37 1   
    29    16    19 2   
    30    16    24 1   
    31    16    41 1   
    32    17    18 1   
    33    17    42 1   
    34    17    43 1   
    35    18    44 1   
    36    18    45 1   
    37    19    22 1   
    38    20    23 1   
    39    20    48 2   
    40    21    25 1   
    41    21    49 2   
    42    22    23 2   
    43    22    25 1   
    44    23    24 1   
    45    24    46 1   
    46    25    47 1   
    47    32    46 1   
    48    33    46 1   
    49    34    46 1   
    50    38    47 1   
    51    39    47 1   
    52    40    47 1   
@<TRIPOS>SUBSTRUCTURE
     1 DW0         1 TEMP              0 ****  ****    0 ROOT
