@<TRIPOS>MOLECULE
DW4
   83    86     1     0     0
SMALL
bcc


@<TRIPOS>ATOM
      1 C33          0.0000     0.0000     0.0000 c          1 DW4       0.678100
      2 O42          1.2150     0.0000     0.0000 o          1 DW4      -0.659000
      3 O34         -0.6730     0.0000     1.1660 os         1 DW4      -0.415900
      4 C35          0.1180     0.0010     2.3840 c3         1 DW4       0.302700
      5 C36         -0.8000     0.0010     3.5800 ca         1 DW4      -0.123300
      6 C37         -1.2200    -1.1960     4.1290 ca         1 DW4      -0.073500
      7 C38         -2.0620    -1.1960     5.2240 ca         1 DW4      -0.106000
      8 C39         -2.4830     0.0010     5.7720 ca         1 DW4      -0.089000
      9 C40         -2.0630     1.1980     5.2230 ca         1 DW4      -0.106000
     10 C41         -1.2170     1.1980     4.1300 ca         1 DW4      -0.073500
     11 N18          3.4190     0.7070    -7.6230 ns         1 DW4      -0.269900
     12 C19          3.4880    -0.5770    -6.9200 c3         1 DW4       0.039000
     13 C20          2.3090    -1.4540    -7.3490 c3         1 DW4      -0.040700
     14 N29          1.4000    -1.6390    -6.2150 na         1 DW4       0.578400
     15 C02          0.4220     1.4200    -2.8060 c          1 DW4       0.574100
     16 C25          0.0580     0.0040    -2.4360 c3         1 DW4      -0.047300
     17 C26         -0.8210    -0.6000    -3.5320 c3         1 DW4      -0.022700
     18 C27          0.0490    -1.2650    -4.5660 cc         1 DW4       0.264600
     19 C28          0.7920    -0.6520    -5.5180 cd         1 DW4      -0.432600
     20 N30          1.0440    -2.7680    -5.7110 nd         1 DW4      -0.372800
     21 N31          0.2400    -2.5800    -4.7250 nc         1 DW4      -0.310000
     22 N32         -0.6740     0.0040    -1.1670 ns         1 DW4      -0.170900
     23 N13          3.1740     4.0850    -3.7780 ns         1 DW4      -0.198900
     24 C14          4.6200     3.8870    -4.0430 c3         1 DW4      -0.016300
     25 C15          4.7910     3.4630    -5.5030 c3         1 DW4      -0.028400
     26 C16          4.1820     2.0750    -5.7070 c3         1 DW4      -0.120400
     27 C17          4.1360     1.7580    -7.1800 c          1 DW4       0.601100
     28 O21          4.7450     2.4500    -7.9670 o          1 DW4      -0.605100
     29 C22          5.3730     5.1960    -3.7960 c3         1 DW4       0.223400
     30 O23          5.3090     5.5270    -2.4070 oh         1 DW4      -0.578800
     31 N03          0.7920     2.2850    -1.8190 ns         1 DW4      -0.185900
     32 C04          1.2530     3.6170    -2.2630 c3         1 DW4      -0.071300
     33 C12          2.7330     3.5520    -2.5970 c          1 DW4       0.561100
     34 O24          3.5080     3.0180    -1.8310 o          1 DW4      -0.612100
     35 C05          1.0290     4.6370    -1.1440 c3         1 DW4      -0.021400
     36 C06         -0.4710     4.7850    -0.8820 c3         1 DW4      -0.054700
     37 C11         -0.6900     5.6960     0.3280 c3         1 DW4      -0.026900
     38 C10         -2.1900     5.8430     0.5910 c3         1 DW4      -0.022400
     39 C09         -2.8640     6.4570    -0.6390 c3         1 DW4      -0.025400
     40 C08         -2.6460     5.5470    -1.8490 c3         1 DW4      -0.022400
     41 C07         -1.1450     5.3980    -2.1110 c3         1 DW4      -0.026900
     42 H35          0.7430    -0.8840     2.4100 h1         1 DW4       0.017200
     43 H36          0.7430     0.8850     2.4090 h1         1 DW4       0.017200
     44 H37         -0.8900    -2.1350     3.7000 ha         1 DW4       0.107000
     45 H38         -2.3910    -2.1340     5.6550 ha         1 DW4       0.104500
     46 H39         -3.1450     0.0010     6.6300 ha         1 DW4       0.103000
     47 H40         -2.3920     2.1360     5.6540 ha         1 DW4       0.104500
     48 H41         -0.8880     2.1370     3.7000 ha         1 DW4       0.107000
     49 H23          4.4180    -1.0750    -7.1660 h1         1 DW4       0.033700
     50 H24          3.4410    -0.4070    -5.8510 h1         1 DW4       0.033700
     51 H26          1.7790    -0.9740    -8.1620 h1         1 DW4       0.050700
     52 H25          2.6780    -2.4180    -7.6770 h1         1 DW4       0.050700
     53 H30          0.9610    -0.5850    -2.3310 h1         1 DW4       0.085700
     54 H31         -1.4030     0.1850    -4.0010 hc         1 DW4       0.037200
     55 H32         -1.4890    -1.3330    -3.0970 hc         1 DW4       0.037200
     56 H33          0.7070     0.3830    -5.8240 h4         1 DW4       0.186000
     57 H34         -1.6740    -0.0260    -1.1670 hn         1 DW4       0.185500
     58 H16          2.5370     4.2090    -4.5400 hn         1 DW4       0.185500
     59 H17          5.0070     3.1140    -3.3900 h1         1 DW4       0.079700
     60 H18          4.2900     4.1750    -6.1470 hc         1 DW4       0.035700
     61 H19          5.8460     3.4340    -5.7480 hc         1 DW4       0.035700
     62 H20          4.7890     1.3360    -5.1980 hc         1 DW4       0.041200
     63 H21          3.1780     2.0580    -5.3020 hc         1 DW4       0.041200
     64 H27          6.4090     5.0780    -4.0910 h1         1 DW4      -0.010800
     65 H28          4.9200     5.9900    -4.3770 h1         1 DW4      -0.010800
     66 H29          5.8530     6.2790    -2.2380 ho         1 DW4       0.386000
     67 H3           1.0640     1.9340    -0.9220 hn         1 DW4       0.221500
     68 H4           0.6970     3.9180    -3.1430 h1         1 DW4       0.069700
     69 H5           1.4400     5.5940    -1.4400 hc         1 DW4       0.034700
     70 H6           1.5220     4.2960    -0.2410 hc         1 DW4       0.034700
     71 H7          -0.9050     3.8120    -0.6830 hc         1 DW4       0.032700
     72 H15         -0.2630     6.6700     0.1270 hc         1 DW4       0.017700
     73 H14         -0.2140     5.2600     1.1980 hc         1 DW4       0.017700
     74 H2          -2.3440     6.4900     1.4460 hc         1 DW4       0.012950
     75 H1          -2.6190     4.8680     0.7860 hc         1 DW4       0.012950
     76 H13         -3.9260     6.5600    -0.4530 hc         1 DW4       0.013200
     77 H12         -2.4310     7.4300    -0.8380 hc         1 DW4       0.013200
     78 H11         -3.0740     4.5730    -1.6480 hc         1 DW4       0.012950
     79 H10         -3.1210     5.9850    -2.7180 hc         1 DW4       0.012950
     80 H8          -0.9920     4.7520    -2.9660 hc         1 DW4       0.017700
     81 H9          -0.7160     6.3740    -2.3070 hc         1 DW4       0.017700
     82 H22          2.8630     0.7940    -8.4510 hn         1 DW4       0.194500
     83 O01          0.3860     1.7820    -3.9630 o          1 DW4      -0.672100
@<TRIPOS>BOND
     1     1     2 2   
     2     1     3 1   
     3     1    22 1   
     4     3     4 1   
     5     4     5 1   
     6     4    42 1   
     7     4    43 1   
     8     5     6 ar  
     9     5    10 ar  
    10     6     7 ar  
    11     6    44 1   
    12     7     8 ar  
    13     7    45 1   
    14     8     9 ar  
    15     8    46 1   
    16     9    10 ar  
    17     9    47 1   
    18    10    48 1   
    19    11    12 1   
    20    11    27 1   
    21    11    82 1   
    22    12    13 1   
    23    12    49 1   
    24    12    50 1   
    25    13    14 1   
    26    13    51 1   
    27    13    52 1   
    28    14    19 1   
    29    14    20 1   
    30    15    16 1   
    31    15    31 1   
    32    15    83 2   
    33    16    17 1   
    34    16    22 1   
    35    16    53 1   
    36    17    18 1   
    37    17    54 1   
    38    17    55 1   
    39    18    19 2   
    40    18    21 1   
    41    19    56 1   
    42    20    21 2   
    43    22    57 1   
    44    23    24 1   
    45    23    33 1   
    46    23    58 1   
    47    24    25 1   
    48    24    29 1   
    49    24    59 1   
    50    25    26 1   
    51    25    60 1   
    52    25    61 1   
    53    26    27 1   
    54    26    62 1   
    55    26    63 1   
    56    27    28 2   
    57    29    30 1   
    58    29    64 1   
    59    29    65 1   
    60    30    66 1   
    61    31    32 1   
    62    31    67 1   
    63    32    33 1   
    64    32    35 1   
    65    32    68 1   
    66    33    34 2   
    67    35    36 1   
    68    35    69 1   
    69    35    70 1   
    70    36    37 1   
    71    36    41 1   
    72    36    71 1   
    73    37    38 1   
    74    37    72 1   
    75    37    73 1   
    76    38    39 1   
    77    38    74 1   
    78    38    75 1   
    79    39    40 1   
    80    39    76 1   
    81    39    77 1   
    82    40    41 1   
    83    40    78 1   
    84    40    79 1   
    85    41    80 1   
    86    41    81 1   
@<TRIPOS>SUBSTRUCTURE
     1 DW4         1 TEMP              0 ****  ****    0 ROOT
