@<TRIPOS>MOLECULE
molecule
   83    86     1     0     0
SMALL
bcc


@<TRIPOS>ATOM
      1 C33          0.0000     0.0000     0.0000 c          1 DW4       0.747100
      2 O42          1.2150     0.0000     0.0000 o          1 DW4      -0.614000
      3 O34         -0.6730     0.0000     1.1660 os         1 DW4      -0.432900
      4 C35          0.1180     0.0010     2.3840 c3         1 DW4       0.215700
      5 C36         -0.8000     0.0010     3.5800 ca         1 DW4      -0.103300
      6 C37         -1.2200    -1.1960     4.1290 ca         1 DW4      -0.101500
      7 C38         -2.0620    -1.1960     5.2240 ca         1 DW4      -0.132500
      8 C39         -2.4830     0.0010     5.7720 ca         1 DW4      -0.115000
      9 C40         -2.0630     1.1980     5.2230 ca         1 DW4      -0.132500
     10 C41         -1.2170     1.1980     4.1300 ca         1 DW4      -0.101500
     11 N18          3.4190     0.7070    -7.6230 ns         1 DW4      -0.634900
     12 C19          3.4880    -0.5770    -6.9200 c3         1 DW4       0.092000
     13 C20          2.3090    -1.4540    -7.3490 c3         1 DW4       0.045300
     14 N29          1.4000    -1.6390    -6.2150 na         1 DW4       0.115400
     15 C02          0.4220     1.4200    -2.8060 c          1 DW4       0.648100
     16 C25          0.0580     0.0040    -2.4360 c3         1 DW4       0.061700
     17 C26         -0.8210    -0.6000    -3.5320 c3         1 DW4      -0.089700
     18 C27          0.0490    -1.2650    -4.5660 cc         1 DW4       0.266600
     19 C28          0.7920    -0.6520    -5.5180 cd         1 DW4      -0.264600
     20 N30          1.0440    -2.7680    -5.7110 nd         1 DW4      -0.204800
     21 N31          0.2400    -2.5800    -4.7250 nc         1 DW4      -0.358000
     22 N32         -0.6740     0.0040    -1.1670 ns         1 DW4      -0.569900
     23 N13          3.1740     4.0850    -3.7780 ns         1 DW4      -0.569900
     24 C14          4.6200     3.8870    -4.0430 c3         1 DW4       0.092700
     25 C15          4.7910     3.4630    -5.5030 c3         1 DW4      -0.086400
     26 C16          4.1820     2.0750    -5.7070 c3         1 DW4      -0.169400
     27 C17          4.1360     1.7580    -7.1800 c          1 DW4       0.677100
     28 O21          4.7450     2.4500    -7.9670 o          1 DW4      -0.575100
     29 C22          5.3730     5.1960    -3.7960 c3         1 DW4       0.140400
     30 O23          5.3090     5.5270    -2.4070 oh         1 DW4      -0.594800
     31 N03          0.7920     2.2850    -1.8190 ns         1 DW4      -0.545900
     32 C04          1.2530     3.6170    -2.2630 c3         1 DW4       0.028700
     33 C12          2.7330     3.5520    -2.5970 c          1 DW4       0.633100
     34 O24          3.5080     3.0180    -1.8310 o          1 DW4      -0.579100
     35 C05          1.0290     4.6370    -1.1440 c3         1 DW4      -0.074400
     36 C06         -0.4710     4.7850    -0.8820 c3         1 DW4      -0.070700
     37 C11         -0.6900     5.6960     0.3280 c3         1 DW4      -0.076900
     38 C10         -2.1900     5.8430     0.5910 c3         1 DW4      -0.078900
     39 C09         -2.8640     6.4570    -0.6390 c3         1 DW4      -0.080400
     40 C08         -2.6460     5.5470    -1.8490 c3         1 DW4      -0.078900
     41 C07         -1.1450     5.3980    -2.1110 c3         1 DW4      -0.076900
     42 H35          0.7430    -0.8840     2.4100 h1         1 DW4       0.059200
     43 H36          0.7430     0.8850     2.4090 h1         1 DW4       0.059200
     44 H37         -0.8900    -2.1350     3.7000 ha         1 DW4       0.134500
     45 H38         -2.3910    -2.1340     5.6550 ha         1 DW4       0.133000
     46 H39         -3.1450     0.0010     6.6300 ha         1 DW4       0.131000
     47 H40         -2.3920     2.1360     5.6540 ha         1 DW4       0.133000
     48 H41         -0.8880     2.1370     3.7000 ha         1 DW4       0.134500
     49 H23          4.4180    -1.0750    -7.1660 h1         1 DW4       0.064200
     50 H24          3.4410    -0.4070    -5.8510 h1         1 DW4       0.064200
     51 H26          1.7790    -0.9740    -8.1620 h1         1 DW4       0.081700
     52 H25          2.6780    -2.4180    -7.6770 h1         1 DW4       0.081700
     53 H30          0.9610    -0.5850    -2.3310 h1         1 DW4       0.114700
     54 H31         -1.4030     0.1850    -4.0010 hc         1 DW4       0.074200
     55 H32         -1.4890    -1.3330    -3.0970 hc         1 DW4       0.074200
     56 H33          0.7070     0.3830    -5.8240 h4         1 DW4       0.206000
     57 H34         -1.6740    -0.0260    -1.1670 hn         1 DW4       0.332500
     58 H16          2.5370     4.2090    -4.5400 hn         1 DW4       0.318500
     59 H17          5.0070     3.1140    -3.3900 h1         1 DW4       0.100700
     60 H18          4.2900     4.1750    -6.1470 hc         1 DW4       0.064200
     61 H19          5.8460     3.4340    -5.7480 hc         1 DW4       0.064200
     62 H20          4.7890     1.3360    -5.1980 hc         1 DW4       0.072700
     63 H21          3.1780     2.0580    -5.3020 hc         1 DW4       0.072700
     64 H27          6.4090     5.0780    -4.0910 h1         1 DW4       0.024200
     65 H28          4.9200     5.9900    -4.3770 h1         1 DW4       0.024200
     66 H29          5.8530     6.2790    -2.2380 ho         1 DW4       0.399000
     67 H3           1.0640     1.9340    -0.9220 hn         1 DW4       0.350500
     68 H4           0.6970     3.9180    -3.1430 h1         1 DW4       0.087700
     69 H5           1.4400     5.5940    -1.4400 hc         1 DW4       0.063200
     70 H6           1.5220     4.2960    -0.2410 hc         1 DW4       0.063200
     71 H7          -0.9050     3.8120    -0.6830 hc         1 DW4       0.059700
     72 H15         -0.2630     6.6700     0.1270 hc         1 DW4       0.042200
     73 H14         -0.2140     5.2600     1.1980 hc         1 DW4       0.042200
     74 H2          -2.3440     6.4900     1.4460 hc         1 DW4       0.040700
     75 H1          -2.6190     4.8680     0.7860 hc         1 DW4       0.040700
     76 H13         -3.9260     6.5600    -0.4530 hc         1 DW4       0.040200
     77 H12         -2.4310     7.4300    -0.8380 hc         1 DW4       0.040200
     78 H11         -3.0740     4.5730    -1.6480 hc         1 DW4       0.040700
     79 H10         -3.1210     5.9850    -2.7180 hc         1 DW4       0.040700
     80 H8          -0.9920     4.7520    -2.9660 hc         1 DW4       0.042200
     81 H9          -0.7160     6.3740    -2.3070 hc         1 DW4       0.042200
     82 H22          2.8630     0.7940    -8.4510 hn         1 DW4       0.328500
     83 O01          0.3860     1.7820    -3.9630 o          1 DW4      -0.636100
@<TRIPOS>BOND
     1    30    29 1
     2    29    24 1
     3    28    27 2
     4    24    25 1
     5    24    23 1
     6    25    26 1
     7    27    26 1
     8    27    11 1
     9    23    33 1
    10    34    33 2
    11    12    13 1
    12    12    11 1
    13    13    14 1
    14    33    32 1
    15    35    32 1
    16    35    36 1
    17    14    19 1
    18    14    20 1
    19    32    31 1
    20    37    36 1
    21    37    38 1
    22    19    18 2
    23    36    41 1
    24    20    21 2
    25    38    39 1
    26    31    15 1
    27    41    40 1
    28    83    15 2
    29    18    21 1
    30    18    17 1
    31    39    40 1
    32    15    16 1
    33    17    16 1
    34    16    22 1
    35    22     1 1
    36     1     3 1
    37     1     2 2
    38     3     4 1
    39     4     5 1
    40    10     5 ar
    41    10     9 ar
    42     5     6 ar
    43     9     8 ar
    44     6     7 ar
    45     8     7 ar
    46    38    75 1
    47    38    74 1
    48    31    67 1
    49    32    68 1
    50    35    69 1
    51    35    70 1
    52    36    71 1
    53    41    80 1
    54    41    81 1
    55    40    79 1
    56    40    78 1
    57    39    77 1
    58    39    76 1
    59    37    73 1
    60    37    72 1
    61    23    58 1
    62    24    59 1
    63    25    60 1
    64    25    61 1
    65    26    62 1
    66    26    63 1
    67    11    82 1
    68    12    49 1
    69    12    50 1
    70    13    52 1
    71    13    51 1
    72    29    64 1
    73    29    65 1
    74    30    66 1
    75    16    53 1
    76    17    54 1
    77    17    55 1
    78    19    56 1
    79    22    57 1
    80     4    42 1
    81     4    43 1
    82     6    44 1
    83     7    45 1
    84     8    46 1
    85     9    47 1
    86    10    48 1
@<TRIPOS>SUBSTRUCTURE
     1 DW4         1 TEMP              0 ****  ****    0 ROOT
