@<TRIPOS>MOLECULE
molecule
   86    89     1     0     0
SMALL
bcc


@<TRIPOS>ATOM
      1 C34          0.0000     0.0000     0.0000 c          1 DW7       0.755100
      2 O43          1.2150     0.0000     0.0000 o          1 DW7      -0.599000
      3 O35         -0.6740     0.0000     1.1660 os         1 DW7      -0.439900
      4 C36          0.1170     0.0000     2.3840 c3         1 DW7       0.214700
      5 C37         -0.8020    -0.0000     3.5780 ca         1 DW7      -0.100300
      6 C38         -1.2280     1.1970     4.1230 ca         1 DW7      -0.104000
      7 C39         -2.0710     1.1970     5.2180 ca         1 DW7      -0.133500
      8 C40         -2.4880    -0.0000     5.7700 ca         1 DW7      -0.117000
      9 C41         -2.0620    -1.1980     5.2250 ca         1 DW7      -0.133500
     10 C42         -1.2230    -1.1970     4.1270 ca         1 DW7      -0.104000
     11 N18         -5.4660    -1.6430     0.1740 ns         1 DW7      -0.581900
     12 C19         -4.6630    -2.8840     0.2900 c3         1 DW7       0.087000
     13 C20         -3.2420    -2.5050     0.7100 c3         1 DW7      -0.116400
     14 C21         -2.3260    -3.7230     0.5670 c3         1 DW7       0.061300
     15 N30         -1.1890    -3.3800    -0.2910 na         1 DW7       0.123400
     16 C29         -1.0810    -2.2700    -1.0570 cc         1 DW7      -0.280600
     17 C28          0.1170    -2.3580    -1.6820 cd         1 DW7       0.288600
     18 C27          0.7030    -1.3660    -2.6530 c3         1 DW7      -0.096700
     19 C26          0.0600     0.0050    -2.4360 c3         1 DW7       0.065700
     20 N33         -0.6730     0.0050    -1.1670 ns         1 DW7      -0.568900
     21 C02         -0.8930     0.2980    -3.5670 c          1 DW7       0.624100
     22 O01         -1.3140    -0.5960    -4.2690 o          1 DW7      -0.554100
     23 N32          0.6760    -3.5020    -1.2710 nd         1 DW7      -0.359000
     24 N31         -0.1230    -4.0830    -0.4470 nc         1 DW7      -0.214800
     25 N13         -4.5600     1.2320    -4.0300 ns         1 DW7      -0.570900
     26 C14         -5.7470     1.6480    -3.2550 c3         1 DW7       0.094700
     27 C15         -6.4910     0.3980    -2.7830 c3         1 DW7      -0.077400
     28 C16         -6.2550     0.1920    -1.2870 c3         1 DW7      -0.170400
     29 C17         -5.4700    -1.0760    -1.0710 c          1 DW7       0.646100
     30 O22         -4.8530    -1.5840    -1.9840 o          1 DW7      -0.609100
     31 C23         -5.3070     2.4750    -2.0450 c3         1 DW7       0.104400
     32 O24         -6.4430     2.7640    -1.2270 oh         1 DW7      -0.620800
     33 N03         -1.2730     1.5950    -3.7840 ns         1 DW7      -0.560900
     34 C04         -2.2900     1.7750    -4.8490 c3         1 DW7       0.028700
     35 C12         -3.5900     2.1740    -4.1990 c          1 DW7       0.652100
     36 O25         -3.7700     3.3160    -3.8320 o          1 DW7      -0.614100
     37 C05         -2.4760     0.4610    -5.6110 c3         1 DW7      -0.099400
     38 C06         -1.1760     0.1000    -6.3320 c3         1 DW7      -0.051700
     39 C11         -1.3020    -1.2970    -6.9400 c3         1 DW7      -0.077900
     40 C10         -0.0010    -1.6590    -7.6610 c3         1 DW7      -0.077900
     41 C09          0.2660    -0.6400    -8.7710 c3         1 DW7      -0.080400
     42 C08          0.3920     0.7570    -8.1620 c3         1 DW7      -0.077900
     43 C07         -0.9090     1.1180    -7.4420 c3         1 DW7      -0.077900
     44 H37          0.7420    -0.8840     2.4090 h1         1 DW7       0.060700
     45 H38          0.7420     0.8850     2.4090 h1         1 DW7       0.060700
     46 H39         -0.9020     2.1350     3.6910 ha         1 DW7       0.134500
     47 H40         -2.4040     2.1350     5.6450 ha         1 DW7       0.132000
     48 H41         -3.1470    -0.0000     6.6300 ha         1 DW7       0.131000
     49 H42         -2.3900    -2.1360     5.6560 ha         1 DW7       0.132000
     50 H43         -0.8890    -2.1350     3.7000 ha         1 DW7       0.134500
     51 H4          -4.6380    -3.3930    -0.6660 h1         1 DW7       0.058700
     52 H5          -5.1030    -3.5340     1.0370 h1         1 DW7       0.058700
     53 H8          -2.8800    -1.7050     0.0770 hc         1 DW7       0.070700
     54 H9          -3.2460    -2.1760     1.7420 hc         1 DW7       0.070700
     55 H6          -2.8800    -4.5410     0.1240 h1         1 DW7       0.068700
     56 H7          -1.9640    -4.0190     1.5440 h1         1 DW7       0.068700
     57 H14         -1.8890    -1.5970    -1.3210 h4         1 DW7       0.192000
     58 H15          0.5130    -1.6970    -3.6660 hc         1 DW7       0.081700
     59 H16          1.7720    -1.2920    -2.4920 hc         1 DW7       0.081700
     60 H19          0.8310     0.7650    -2.4070 h1         1 DW7       0.078700
     61 H36         -1.6710     0.0820    -1.1680 hn         1 DW7       0.332500
     62 H31         -4.6200     0.4580    -4.6620 hn         1 DW7       0.337500
     63 H3          -6.4000     2.2430    -3.8830 h1         1 DW7       0.052700
     64 H32         -7.5520     0.5180    -2.9670 hc         1 DW7       0.063700
     65 H33         -6.1270    -0.4650    -3.3270 hc         1 DW7       0.063700
     66 H12         -5.6990     1.0320    -0.8900 hc         1 DW7       0.086700
     67 H13         -7.2080     0.1170    -0.7780 hc         1 DW7       0.086700
     68 H17         -4.8610     3.4020    -2.3840 h1         1 DW7       0.069700
     69 H18         -4.5800     1.9140    -1.4700 h1         1 DW7       0.069700
     70 H35         -6.5380     3.6980    -1.1400 ho         1 DW7       0.405000
     71 H20         -0.6500     2.3450    -3.5550 hn         1 DW7       0.333500
     72 H21         -1.9700     2.5520    -5.5330 h1         1 DW7       0.081700
     73 H22         -2.7340    -0.3270    -4.9140 hc         1 DW7       0.071200
     74 H23         -3.2720     0.5750    -6.3380 hc         1 DW7       0.071200
     75 H24         -0.3530     0.1120    -5.6280 hc         1 DW7       0.058700
     76 H2          -1.4880    -2.0170    -6.1530 hc         1 DW7       0.041450
     77 H1          -2.1210    -1.3090    -7.6490 hc         1 DW7       0.041450
     78 H11          0.8190    -1.6430    -6.9530 hc         1 DW7       0.040200
     79 H10         -0.0920    -2.6470    -8.0940 hc         1 DW7       0.040200
     80 H30         -0.5560    -0.6530    -9.4760 hc         1 DW7       0.039700
     81 H29          1.1880    -0.8950    -9.2790 hc         1 DW7       0.039700
     82 H28          0.5790     1.4770    -8.9500 hc         1 DW7       0.040200
     83 H27          1.2110     0.7690    -7.4540 hc         1 DW7       0.040200
     84 H25         -1.7280     1.1030    -8.1500 hc         1 DW7       0.041450
     85 H26         -0.8170     2.1070    -7.0090 hc         1 DW7       0.041450
     86 H34         -6.2310    -1.4810     0.7990 hn         1 DW7       0.319500
@<TRIPOS>BOND
     1    30    29 2
     2    31    32 1
     3    31    26 1
     4    29    11 1
     5    29    28 1
     6    11    12 1
     7    27    28 1
     8    27    26 1
     9    26    25 1
    10    12    13 1
    11    13    14 1
    12    25    35 1
    13    14    15 1
    14    36    35 2
    15    35    34 1
    16    15    16 1
    17    15    24 1
    18    16    17 2
    19    34    37 1
    20    34    33 1
    21    22    21 2
    22    24    23 2
    23    37    38 1
    24    21    33 1
    25    21    19 1
    26    17    23 1
    27    17    18 1
    28    43    38 1
    29    43    42 1
    30    38    39 1
    31    18    19 1
    32    39    40 1
    33    19    20 1
    34    20     1 1
    35    42    41 1
    36    41    40 1
    37     1     3 1
    38     1     2 2
    39     3     4 1
    40     6     7 ar
    41     6     5 ar
    42     7     8 ar
    43     4     5 1
    44     5    10 ar
    45     8     9 ar
    46    10     9 ar
    47    39    77 1
    48    39    76 1
    49    26    63 1
    50    12    51 1
    51    12    52 1
    52    14    55 1
    53    14    56 1
    54    13    53 1
    55    13    54 1
    56    40    79 1
    57    40    78 1
    58    28    66 1
    59    28    67 1
    60    16    57 1
    61    18    58 1
    62    18    59 1
    63    31    68 1
    64    31    69 1
    65    19    60 1
    66    33    71 1
    67    34    72 1
    68    37    73 1
    69    37    74 1
    70    38    75 1
    71    43    84 1
    72    43    85 1
    73    42    83 1
    74    42    82 1
    75    41    81 1
    76    41    80 1
    77    25    62 1
    78    27    64 1
    79    27    65 1
    80    11    86 1
    81    32    70 1
    82    20    61 1
    83     4    44 1
    84     4    45 1
    85     6    46 1
    86     7    47 1
    87     8    48 1
    88     9    49 1
    89    10    50 1
@<TRIPOS>SUBSTRUCTURE
     1 DW7         1 TEMP              0 ****  ****    0 ROOT
