@<TRIPOS>MOLECULE
DW8
   77    78     1     0     0
SMALL
bcc


@<TRIPOS>ATOM
      1 OAF          0.0000     0.0000     0.0000 o          1 DW8      -0.718500
      2 PBO          1.4800     0.0000     0.0000 p5         1 DW8       0.443000
      3 OAG          2.0180     0.0000     1.5170 o          1 DW8      -0.718500
      4 OAE          2.0160    -1.3140    -0.7600 o          1 DW8      -0.718500
      5 CBN          2.0840     1.4820    -0.8560 ca         1 DW8       0.024500
      6 CAN          2.3140     1.4480    -2.2170 ca         1 DW8      -0.033000
      7 CAI          2.7740     2.5770    -2.8700 ca         1 DW8      -0.208000
      8 CAH          3.0060     3.7410    -2.1620 ca         1 DW8      -0.142000
      9 CAM          2.7770     3.7800    -0.7990 ca         1 DW8      -0.292000
     10 CBM          2.3100     2.6500    -0.1430 ca         1 DW8       0.169100
     11 OBG          2.0850     2.6860     1.1970 os         1 DW8      -0.171900
     12 CAZ          2.3510     3.9200     1.8660 c3         1 DW8       0.126400
     13 CBI          2.0460     3.7700     3.3350 c          1 DW8       0.520100
     14 OAC          1.6400     2.7110     3.7650 o          1 DW8      -0.493100
     15 NBC          2.2230     4.8130     4.1700 ns         1 DW8      -0.089100
     16 CBK          1.8500     4.7040     5.5140 ca         1 DW8      -0.059400
     17 CAO          1.9940     3.4970     6.1780 ca         1 DW8      -0.028000
     18 CAK          1.3390     5.8100     6.1840 ca         1 DW8      -0.147000
     19 CAJ          0.9680     5.7080     7.5120 ca         1 DW8      -0.106000
     20 CAL          1.1020     4.5080     8.1810 ca         1 DW8      -0.136000
     21 CBL          1.6190     3.3940     7.5170 ca         1 DW8      -0.135600
     22 CBJ          1.7630     2.1070     8.2320 c          1 DW8       0.589700
     23 OAD          2.2140     1.1370     7.6530 o          1 DW8      -0.607100
     24 NBB          1.3960     2.0080     9.5250 ns         1 DW8      -0.222900
     25 CAR          1.5400     0.7340    10.2330 c3         1 DW8       0.053000
     26 CAS          1.0550     0.8930    11.6750 c3         1 DW8       0.196400
     27 OBD         -0.3480     1.1720    11.6770 os         1 DW8      -0.396600
     28 CAT         -0.9040     1.3400    12.9820 c3         1 DW8       0.209400
     29 CAU         -2.4010     1.6320    12.8650 c3         1 DW8       0.207400
     30 OBE         -3.0670     0.4940    12.3140 os         1 DW8      -0.389600
     31 CAV         -4.4770     0.6630    12.1610 c3         1 DW8       0.208400
     32 CAW         -5.0820    -0.6100    11.5670 c3         1 DW8       0.212400
     33 OBF         -4.9290    -1.6880    12.4920 os         1 DW8      -0.423600
     34 CAX         -5.4630    -2.9300    12.0310 c3         1 DW8       0.223400
     35 CAY         -5.2430    -4.0060    13.0960 c3         1 DW8      -0.102400
     36 CBH         -5.8070    -5.3170    12.6110 c          1 DW8       0.574100
     37 OAB         -6.3330    -5.3830    11.5190 o          1 DW8      -0.643100
     38 NBA         -5.7270    -6.4140    13.3880 ns         1 DW8      -0.206900
     39 CAQ         -6.2760    -7.6890    12.9150 c3         1 DW8       0.050000
     40 CAP         -6.0570    -8.7650    13.9810 c3         1 DW8      -0.041400
     41 H3           2.1330     0.5370    -2.7740 ha         1 DW8       0.115000
     42 H4           2.9540     2.5480    -3.9380 ha         1 DW8       0.060000
     43 H5           3.3680     4.6240    -2.6750 ha         1 DW8       0.054000
     44 H6           2.9570     4.6940    -0.2450 ha         1 DW8       0.072000
     45 H7           3.3950     4.1820     1.7390 h1         1 DW8      -0.011300
     46 H8           1.7290     4.7010     1.4460 h1         1 DW8      -0.011300
     47 H9           2.6450     5.6560     3.8340 hn         1 DW8       0.155500
     48 H10          2.4770     2.6620     5.6850 ha         1 DW8       0.183000
     49 H11          1.2310     6.7540     5.6640 ha         1 DW8       0.096000
     50 H12          0.5700     6.5730     8.0290 ha         1 DW8       0.085000
     51 H13          0.8460     4.4420     9.2320 ha         1 DW8       0.088000
     52 H14          1.0450     2.8110    10.0080 hn         1 DW8       0.177500
     53 H15          0.9480    -0.0250     9.7350 h1         1 DW8       0.035200
     54 H16          2.5810     0.4360    10.2330 h1         1 DW8       0.035200
     55 H17          1.2420    -0.0220    12.2220 h1         1 DW8      -0.011800
     56 H18          1.5870     1.7110    12.1460 h1         1 DW8      -0.011800
     57 H19         -0.7570     0.4330    13.5570 h1         1 DW8      -0.009300
     58 H20         -0.4120     2.1670    13.4810 h1         1 DW8      -0.009300
     59 H21         -2.8050     1.8470    13.8470 h1         1 DW8      -0.008300
     60 H22         -2.5520     2.4880    12.2180 h1         1 DW8      -0.008300
     61 H23         -4.9240     0.8580    13.1280 h1         1 DW8      -0.007800
     62 H24         -4.6710     1.4980    11.4990 h1         1 DW8      -0.007800
     63 H25         -4.5740    -0.8530    10.6420 h1         1 DW8       0.003700
     64 H26         -6.1350    -0.4500    11.3690 h1         1 DW8       0.003700
     65 H27         -4.9630    -3.2210    11.1150 h1         1 DW8       0.008700
     66 H28         -6.5240    -2.8200    11.8430 h1         1 DW8       0.008700
     67 H29         -4.1820    -4.1170    13.2840 hc         1 DW8       0.031700
     68 H30         -5.7440    -3.7150    14.0120 hc         1 DW8       0.031700
     69 H31         -5.3130    -6.3540    14.2970 hn         1 DW8       0.171500
     70 H32         -7.3370    -7.5780    12.7270 h1         1 DW8       0.028200
     71 H33         -5.7750    -7.9800    12.0000 h1         1 DW8       0.028200
     72 H34         -4.9960    -8.8760    14.1690 hc         1 DW8       0.012200
     73 H35         -6.5570    -8.4740    14.8960 hc         1 DW8       0.012200
     74 C1          -6.6290   -10.0950    13.4870 c3         1 DW8       0.012900
     75 H36         -6.1280   -10.3860    12.5720 hc         1 DW8       0.003033
     76 H37         -6.4740   -10.8570    14.2420 hc         1 DW8       0.003033
     77 H38         -7.6900    -9.9840    13.2980 hc         1 DW8       0.003033
@<TRIPOS>BOND
     1     1     2 1   
     2     2     3 1   
     3     2     4 1   
     4     2     5 1   
     5     5     6 ar  
     6     5    10 ar  
     7     6     7 ar  
     8     6    41 1   
     9     7     8 ar  
    10     7    42 1   
    11     8     9 ar  
    12     8    43 1   
    13     9    10 ar  
    14     9    44 1   
    15    10    11 1   
    16    11    12 1   
    17    12    13 1   
    18    12    45 1   
    19    12    46 1   
    20    13    14 2   
    21    13    15 1   
    22    15    16 1   
    23    15    47 1   
    24    16    17 ar  
    25    16    18 ar  
    26    17    21 ar  
    27    17    48 1   
    28    18    19 ar  
    29    18    49 1   
    30    19    20 ar  
    31    19    50 1   
    32    20    21 ar  
    33    20    51 1   
    34    21    22 1   
    35    22    23 2   
    36    22    24 1   
    37    24    25 1   
    38    24    52 1   
    39    25    26 1   
    40    25    53 1   
    41    25    54 1   
    42    26    27 1   
    43    26    55 1   
    44    26    56 1   
    45    27    28 1   
    46    28    29 1   
    47    28    57 1   
    48    28    58 1   
    49    29    30 1   
    50    29    59 1   
    51    29    60 1   
    52    30    31 1   
    53    31    32 1   
    54    31    61 1   
    55    31    62 1   
    56    32    33 1   
    57    32    63 1   
    58    32    64 1   
    59    33    34 1   
    60    34    35 1   
    61    34    65 1   
    62    34    66 1   
    63    35    36 1   
    64    35    67 1   
    65    35    68 1   
    66    36    37 2   
    67    36    38 1   
    68    38    39 1   
    69    38    69 1   
    70    39    40 1   
    71    39    70 1   
    72    39    71 1   
    73    40    72 1   
    74    40    73 1   
    75    40    74 1   
    76    74    75 1   
    77    74    76 1   
    78    74    77 1   
@<TRIPOS>SUBSTRUCTURE
     1 DW8         1 TEMP              0 ****  ****    0 ROOT
