@<TRIPOS>MOLECULE
DWA
   46    49     1     0     0
SMALL
bcc


@<TRIPOS>ATOM
      1 C15          0.0000     0.0000     0.0000 c3         1 DWA       0.243700
      2 O14          1.4290     0.0000     0.0000 os         1 DWA      -0.294900
      3 C2           2.0460     0.0000     1.2110 ca         1 DWA       0.184100
      4 C3           3.4320    -0.0010     1.2830 ca         1 DWA      -0.162500
      5 C4           4.0560     0.0000     2.5160 ca         1 DWA      -0.046500
      6 C1           1.2930     0.0070     2.3750 ca         1 DWA      -0.162500
      7 C6           1.9220     0.0130     3.6040 ca         1 DWA      -0.046500
      8 C5           3.3030     0.0000     3.6750 ca         1 DWA      -0.178300
      9 C7           3.9870     0.0070     5.0170 c3         1 DWA       0.221800
     10 C19          5.0400     1.1390     5.0970 c3         1 DWA       0.193400
     11 O18          4.2760     2.1940     5.7170 os         1 DWA      -0.383400
     12 C17          3.2800     1.6200     6.4200 c2         1 DWA       0.332500
     13 N16          3.0450     0.3880     6.0880 n2         1 DWA      -0.436900
     14 N20          2.5780     2.2780     7.3990 nz         1 DWA       0.240400
     15 C8           4.6160    -1.3330     5.3040 ca         1 DWA      -0.121300
     16 C13          3.9470    -2.2550     6.0820 ca         1 DWA      -0.066000
     17 C9           5.8610    -1.6370     4.7820 ca         1 DWA      -0.093000
     18 C10          6.4420    -2.8650     5.0410 ca         1 DWA      -0.080000
     19 C11          5.7850    -3.7940     5.8220 ca         1 DWA      -0.064000
     20 C12          4.5280    -3.4930     6.3470 cp         1 DWA      -0.016000
     21 C21          3.8140    -4.4890     7.1830 cp         1 DWA      -0.184300
     22 C26          3.6630    -5.8060     6.7450 ca         1 DWA      -0.030000
     23 C25          2.9890    -6.6980     7.5620 ca         1 DWA      -0.220300
     24 C24          2.4890    -6.2610     8.7740 ca         1 DWA       0.441200
     25 N23          2.6460    -5.0090     9.1640 nb         1 DWA      -0.584000
     26 C22          3.2860    -4.1250     8.4230 ca         1 DWA       0.563500
     27 F27          3.4230    -2.8550     8.8630 f          1 DWA      -0.234200
     28 H1          -0.3610    -0.0360    -1.0210 h1         1 DWA       0.003700
     29 H2          -0.3610    -0.8660     0.5420 h1         1 DWA       0.003700
     30 H3          -0.3610     0.9020     0.4790 h1         1 DWA       0.003700
     31 H4           4.0230    -0.0010     0.3760 ha         1 DWA       0.131000
     32 H5           5.1380    -0.0050     2.5740 ha         1 DWA       0.105500
     33 H6           0.2110     0.0170     2.3200 ha         1 DWA       0.131000
     34 H7           1.3330     0.0150     4.5130 ha         1 DWA       0.105500
     35 H8           5.8740     0.8470     5.7230 h1         1 DWA       0.061700
     36 H9           5.3690     1.4310     4.1070 h1         1 DWA       0.061700
     37 H10          1.6590     1.8880     7.4710 hn         1 DWA       0.223133
     38 H11          3.0520     2.1780     8.2740 hn         1 DWA       0.223133
     39 H12          2.9710    -2.0160     6.4870 ha         1 DWA       0.123000
     40 H13          6.3810    -0.9120     4.1680 ha         1 DWA       0.106000
     41 H14          7.4180    -3.0980     4.6310 ha         1 DWA       0.118000
     42 H15          6.2420    -4.7550     6.0230 ha         1 DWA       0.120000
     43 H16          4.0640    -6.1230     5.7900 ha         1 DWA       0.122000
     44 H17          2.8530    -7.7280     7.2540 ha         1 DWA       0.127000
     45 H18          1.9590    -6.9560     9.4140 h4         1 DWA      -0.007900
     46 H203         2.5120     3.2500     7.1660 hn         1 DWA       0.223133
@<TRIPOS>BOND
     1     1     2 1   
     2     1    28 1   
     3     1    29 1   
     4     1    30 1   
     5     2     3 1   
     6     3     4 ar  
     7     3     6 ar  
     8     4     5 ar  
     9     4    31 1   
    10     5     8 ar  
    11     5    32 1   
    12     6     7 ar  
    13     6    33 1   
    14     7     8 ar  
    15     7    34 1   
    16     8     9 1   
    17     9    10 1   
    18     9    13 1   
    19     9    15 1   
    20    10    11 1   
    21    10    35 1   
    22    10    36 1   
    23    11    12 1   
    24    12    13 2   
    25    12    14 1   
    26    14    37 1   
    27    14    38 1   
    28    14    46 1   
    29    15    16 ar  
    30    15    17 ar  
    31    16    20 ar  
    32    16    39 1   
    33    17    18 ar  
    34    17    40 1   
    35    18    19 ar  
    36    18    41 1   
    37    19    20 ar  
    38    19    42 1   
    39    20    21 1   
    40    21    22 ar  
    41    21    26 ar  
    42    22    23 ar  
    43    22    43 1   
    44    23    24 ar  
    45    23    44 1   
    46    24    25 ar  
    47    24    45 1   
    48    25    26 ar  
    49    26    27 1   
@<TRIPOS>SUBSTRUCTURE
     1 DWA         1 TEMP              0 ****  ****    0 ROOT
