@<TRIPOS>MOLECULE
molecule
   46    50     1     0     0
SMALL
bcc


@<TRIPOS>ATOM
      1 F26          0.0000     0.0000     0.0000 f          1 DWB      -0.125900
      2 C20          1.3510     0.0000     0.0000 ca         1 DWB       0.149900
      3 C21          2.0450     0.0000     1.1960 ca         1 DWB      -0.149000
      4 C22          3.4270    -0.0000     1.1970 ca         1 DWB      -0.084000
      5 C23          4.1240    -0.0000     0.0010 ca         1 DWB       0.009400
      6 Cl2          5.8600     0.0010     0.0110 cl         1 DWB      -0.089400
      7 C24          3.4430    -0.0000    -1.2010 ca         1 DWB      -0.100000
      8 C14          2.0490    -0.0060    -1.2080 cp         1 DWB      -0.084000
      9 C12          1.3120    -0.0130    -2.4950 cp         1 DWB      -0.051000
     10 C13          1.6360     0.9050    -3.4920 ca         1 DWB      -0.076000
     11 C8           0.9500     0.9000    -4.6890 ca         1 DWB      -0.179300
     12 C11          0.2970    -0.9420    -2.7130 ca         1 DWB      -0.048000
     13 C10         -0.3850    -0.9440    -3.9110 ca         1 DWB      -0.132000
     14 C9          -0.0650    -0.0240    -4.9030 ca         1 DWB       0.172100
     15 O25         -0.7470    -0.0470    -6.0730 os         1 DWB      -0.218200
     16 C4          -0.7670     1.0430    -6.8780 ca         1 DWB       0.119100
     17 C3          -1.7770     1.1700    -7.8250 ca         1 DWB      -0.089000
     18 C2          -1.8160     2.2730    -8.6550 ca         1 DWB      -0.165000
     19 C1          -0.8440     3.2570    -8.5440 ca         1 DWB       0.136100
     20 O28         -0.8810     4.3440    -9.3620 os         1 DWB      -0.327900
     21 C29         -1.9480     4.4060   -10.3100 c3         1 DWB       0.124700
     22 C6           0.1630     3.1320    -7.6010 ca         1 DWB      -0.126000
     23 C5           0.2030     2.0280    -6.7680 ca         1 DWB      -0.131300
     24 C7           1.3020     1.8970    -5.7530 c3         1 DWB       0.223800
     25 C18          2.6280     1.5170    -6.4430 c3         1 DWB       0.124400
     26 O17          3.5730     2.3060    -5.6910 os         1 DWB      -0.417400
     27 C16          2.9080     3.3510    -5.1610 c2         1 DWB       0.571500
     28 N19          3.5350     4.4730    -4.6760 nz         1 DWB      -0.715600
     29 N15          1.6160     3.2000    -5.1500 n2         1 DWB      -0.528900
     30 H1           1.5040    -0.0000     2.1350 ha         1 DWB       0.165000
     31 H2           3.9660    -0.0000     2.1360 ha         1 DWB       0.162000
     32 H3           3.9900    -0.0030    -2.1350 ha         1 DWB       0.146000
     33 H4           2.4210     1.6320    -3.3220 ha         1 DWB       0.114000
     34 H5           0.0950    -1.7080    -1.9740 ha         1 DWB       0.164000
     35 H6          -1.1740    -1.6670    -4.0810 ha         1 DWB       0.168000
     36 H7          -2.5350     0.4020    -7.9120 ha         1 DWB       0.165000
     37 H8          -2.5710     2.3410    -9.4290 ha         1 DWB       0.161000
     38 H9          -2.8970     4.3500    -9.7910 h1         1 DWB       0.051700
     39 H10         -1.8900     5.3400   -10.8570 h1         1 DWB       0.051700
     40 H11         -1.8650     3.5770   -11.0020 h1         1 DWB       0.051700
     41 H12          0.9210     3.9000    -7.5150 ha         1 DWB       0.132000
     42 H13          2.6200     1.8130    -7.4850 h1         1 DWB       0.111200
     43 H14          2.8320     0.4590    -6.3330 h1         1 DWB       0.111200
     44 H15          4.3680     4.2060    -4.1910 hn         1 DWB       0.484467
     45 H16          2.9210     4.9530    -4.0470 hn         1 DWB       0.484467
     46 H193         3.7710     5.0780    -5.4380 hn         1 DWB       0.484467
@<TRIPOS>BOND
     1    21    20 1
     2    18    17 ar
     3    18    19 ar
     4    20    19 1
     5    17    16 ar
     6    19    22 ar
     7    16    15 1
     8    16    23 ar
     9    22    23 ar
    10    15    14 1
    11    23    24 1
    12    25    24 1
    13    25    26 1
    14    14    13 ar
    15    14    11 ar
    16    13    12 ar
    17    24    11 1
    18    24    29 1
    19    11    10 ar
    20    26    27 1
    21    12     9 ar
    22    29    27 2
    23     1     2 1
    24    10     9 ar
    25    27    28 1
    26     9     8 1
    27     2     8 ar
    28     2     3 ar
    29     8     7 ar
    30     3     4 ar
    31     7     5 ar
    32     4     5 ar
    33     5     6 1
    34     3    30 1
    35     4    31 1
    36     7    32 1
    37    10    33 1
    38    12    34 1
    39    13    35 1
    40    17    36 1
    41    18    37 1
    42    21    38 1
    43    21    39 1
    44    21    40 1
    45    22    41 1
    46    25    42 1
    47    25    43 1
    48    28    44 1
    49    28    45 1
    50    46    28 1
@<TRIPOS>SUBSTRUCTURE
     1 DWB         1 TEMP              0 ****  ****    0 ROOT
