@<TRIPOS>MOLECULE
DWB
   46    50     1     0     0
SMALL
bcc


@<TRIPOS>ATOM
      1 F26          0.0000     0.0000     0.0000 f          1 DWB      -0.118900
      2 C20          1.3510     0.0000     0.0000 ca         1 DWB       0.121900
      3 C21          2.0450     0.0000     1.1960 ca         1 DWB      -0.110000
      4 C22          3.4270    -0.0000     1.1970 ca         1 DWB      -0.059000
      5 C23          4.1240    -0.0000     0.0010 ca         1 DWB      -0.054600
      6 Cl2          5.8600     0.0010     0.0110 cl         1 DWB      -0.002400
      7 C24          3.4430    -0.0000    -1.2010 ca         1 DWB      -0.082000
      8 C14          2.0490    -0.0060    -1.2080 cp         1 DWB      -0.070000
      9 C12          1.3120    -0.0130    -2.4950 cp         1 DWB      -0.046000
     10 C13          1.6360     0.9050    -3.4920 ca         1 DWB      -0.056000
     11 C8           0.9500     0.9000    -4.6890 ca         1 DWB      -0.204300
     12 C11          0.2970    -0.9420    -2.7130 ca         1 DWB      -0.016000
     13 C10         -0.3850    -0.9440    -3.9110 ca         1 DWB      -0.110000
     14 C9          -0.0650    -0.0240    -4.9030 ca         1 DWB       0.178100
     15 O25         -0.7470    -0.0470    -6.0730 os         1 DWB      -0.184200
     16 C4          -0.7670     1.0430    -6.8780 ca         1 DWB       0.123100
     17 C3          -1.7770     1.1700    -7.8250 ca         1 DWB      -0.063000
     18 C2          -1.8160     2.2730    -8.6550 ca         1 DWB      -0.146000
     19 C1          -0.8440     3.2570    -8.5440 ca         1 DWB       0.146100
     20 O28         -0.8810     4.3440    -9.3620 os         1 DWB      -0.308900
     21 C29         -1.9480     4.4060   -10.3100 c3         1 DWB       0.244700
     22 C6           0.1630     3.1320    -7.6010 ca         1 DWB      -0.109000
     23 C5           0.2030     2.0280    -6.7680 ca         1 DWB      -0.156300
     24 C7           1.3020     1.8970    -5.7530 c3         1 DWB       0.232800
     25 C18          2.6280     1.5170    -6.4430 c3         1 DWB       0.201400
     26 O17          3.5730     2.3060    -5.6910 os         1 DWB      -0.387400
     27 C16          2.9080     3.3510    -5.1610 c2         1 DWB       0.320500
     28 N19          3.5350     4.4730    -4.6760 nz         1 DWB       0.240400
     29 N15          1.6160     3.2000    -5.1500 n2         1 DWB      -0.424900
     30 H1           1.5040    -0.0000     2.1350 ha         1 DWB       0.132000
     31 H2           3.9660    -0.0000     2.1360 ha         1 DWB       0.127000
     32 H3           3.9900    -0.0030    -2.1350 ha         1 DWB       0.115000
     33 H4           2.4210     1.6320    -3.3220 ha         1 DWB       0.086000
     34 H5           0.0950    -1.7080    -1.9740 ha         1 DWB       0.128000
     35 H6          -1.1740    -1.6670    -4.0810 ha         1 DWB       0.134000
     36 H7          -2.5350     0.4020    -7.9120 ha         1 DWB       0.129000
     37 H8          -2.5710     2.3410    -9.4290 ha         1 DWB       0.136000
     38 H9          -2.8970     4.3500    -9.7910 h1         1 DWB       0.005700
     39 H10         -1.8900     5.3400   -10.8570 h1         1 DWB       0.005700
     40 H11         -1.8650     3.5770   -11.0020 h1         1 DWB       0.005700
     41 H12          0.9210     3.9000    -7.5150 ha         1 DWB       0.101000
     42 H13          2.6200     1.8130    -7.4850 h1         1 DWB       0.062700
     43 H14          2.8320     0.4590    -6.3330 h1         1 DWB       0.062700
     44 H15          4.3680     4.2060    -4.1910 hn         1 DWB       0.222800
     45 H16          2.9210     4.9530    -4.0470 hn         1 DWB       0.222800
     46 H193         3.7710     5.0780    -5.4380 hn         1 DWB       0.222800
@<TRIPOS>BOND
     1     1     2 1   
     2     2     3 ar  
     3     2     8 ar  
     4     3     4 ar  
     5     3    30 1   
     6     4     5 ar  
     7     4    31 1   
     8     5     6 1   
     9     5     7 ar  
    10     7     8 ar  
    11     7    32 1   
    12     8     9 1   
    13     9    10 ar  
    14     9    12 ar  
    15    10    11 ar  
    16    10    33 1   
    17    11    14 ar  
    18    11    24 1   
    19    12    13 ar  
    20    12    34 1   
    21    13    14 ar  
    22    13    35 1   
    23    14    15 1   
    24    15    16 1   
    25    16    17 ar  
    26    16    23 ar  
    27    17    18 ar  
    28    17    36 1   
    29    18    19 ar  
    30    18    37 1   
    31    19    20 1   
    32    19    22 ar  
    33    20    21 1   
    34    21    38 1   
    35    21    39 1   
    36    21    40 1   
    37    22    23 ar  
    38    22    41 1   
    39    23    24 1   
    40    24    25 1   
    41    24    29 1   
    42    25    26 1   
    43    25    42 1   
    44    25    43 1   
    45    26    27 1   
    46    27    28 1   
    47    27    29 2   
    48    28    44 1   
    49    28    45 1   
    50    28    46 1   
@<TRIPOS>SUBSTRUCTURE
     1 DWB         1 TEMP              0 ****  ****    0 ROOT
