@<TRIPOS>MOLECULE
molecule
   53    57     1     0     0
SMALL
bcc


@<TRIPOS>ATOM
      1 C26          0.0000     0.0000     0.0000 ca         1 DWD       0.467700
      2 N27          1.3210     0.0000     0.0000 nb         1 DWD      -0.723000
      3 C28          1.9990     0.0000     1.1300 ca         1 DWD       0.694900
      4 N29          1.4010     0.0020     2.3040 nb         1 DWD      -0.723000
      5 C30          0.0820     0.0030     2.3950 ca         1 DWD       0.467700
      6 C15         -0.6770     0.0080     1.2230 cp         1 DWD      -0.301600
      7 C1          -2.1590     0.0090     1.2740 cp         1 DWD      -0.038000
      8 C6          -2.8990     0.0150     0.0940 ca         1 DWD      -0.093000
      9 C5          -4.2800     0.0170     0.1410 ca         1 DWD      -0.165300
     10 C2          -2.8160    -0.0000     2.5040 ca         1 DWD      -0.065000
     11 C3          -4.1930     0.0030     2.5450 ca         1 DWD      -0.128000
     12 C4          -4.9320     0.0140     1.3660 ca         1 DWD       0.175100
     13 O7          -6.2850     0.0170     1.4310 os         1 DWD      -0.215200
     14 C8          -7.0250    -0.3870     0.3710 ca         1 DWD       0.128100
     15 C11         -8.3410    -0.7870     0.5710 ca         1 DWD      -0.091000
     16 C12         -9.1110    -1.2020    -0.4960 ca         1 DWD      -0.164000
     17 C13         -8.5710    -1.2210    -1.7740 ca         1 DWD       0.141100
     18 O16         -9.3290    -1.6290    -2.8260 os         1 DWD      -0.326900
     19 C22        -10.6720    -2.0260    -2.5440 c3         1 DWD       0.136400
     20 C23        -11.3620    -2.4500    -3.8420 c3         1 DWD      -0.074700
     21 C25        -12.7570    -2.9920    -3.5250 c3         1 DWD      -0.087600
     22 C24        -11.4840    -1.2420    -4.7730 c3         1 DWD      -0.087600
     23 C14         -7.2600    -0.8220    -1.9760 ca         1 DWD      -0.147000
     24 C9          -6.4860    -0.4060    -0.9070 ca         1 DWD      -0.144300
     25 C10         -5.0660     0.0190    -1.1360 c3         1 DWD       0.222800
     26 C17         -4.3950    -0.8940    -2.1820 c3         1 DWD       0.119400
     27 O18         -4.5880    -0.1270    -3.3900 os         1 DWD      -0.421400
     28 C19         -4.7340     1.1670    -3.0360 c2         1 DWD       0.572500
     29 N21         -4.6000     2.2070    -3.9250 nz         1 DWD      -0.715600
     30 N20         -5.0130     1.3390    -1.7800 n2         1 DWD      -0.527900
     31 H1          -0.5500     0.0020    -0.9330 h4         1 DWD       0.025600
     32 H2           3.0820    -0.0010     1.0930 h5         1 DWD       0.074100
     33 H3          -0.4020     0.0070     3.3640 h4         1 DWD       0.025600
     34 H4          -2.3910     0.0310    -0.8620 ha         1 DWD       0.125000
     35 H5          -2.2470    -0.0850     3.4210 ha         1 DWD       0.157000
     36 H6          -4.7040    -0.0040     3.5010 ha         1 DWD       0.167000
     37 H7          -8.7640    -0.7720     1.5690 ha         1 DWD       0.165000
     38 H8         -10.1180    -1.5650    -0.3290 ha         1 DWD       0.162000
     39 H9         -11.2090    -1.1950    -2.1040 h1         1 DWD       0.041700
     40 H10        -10.6640    -2.8590    -1.8510 h1         1 DWD       0.041700
     41 H11        -10.7770    -3.2220    -4.3270 hc         1 DWD       0.066700
     42 H12        -13.3340    -2.2290    -3.0170 hc         1 DWD       0.041533
     43 H13        -13.2560    -3.2670    -4.4470 hc         1 DWD       0.041533
     44 H14        -12.6700    -3.8630    -2.8880 hc         1 DWD       0.041533
     45 H15        -11.8730    -0.3960    -4.2190 hc         1 DWD       0.041533
     46 H16        -12.1570    -1.4800    -5.5880 hc         1 DWD       0.041533
     47 H17        -10.5080    -0.9930    -5.1720 hc         1 DWD       0.041533
     48 H18         -6.8390    -0.8370    -2.9740 ha         1 DWD       0.142000
     49 H19         -3.3400    -1.0180    -1.9670 h1         1 DWD       0.110200
     50 H20         -4.9020    -1.8490    -2.2450 h1         1 DWD       0.110200
     51 H21         -5.4990     2.4500    -4.2910 hn         1 DWD       0.483467
     52 H22         -3.9980     1.9290    -4.6750 hn         1 DWD       0.483467
     53 H213        -4.2060     2.9970    -3.4550 hn         1 DWD       0.483467
@<TRIPOS>BOND
     1     4     3 ar
     2     4     5 ar
     3     3     2 ar
     4     5     6 ar
     5     2     1 ar
     6     6     1 ar
     7     6     7 1
     8    29    28 1
     9     7     8 ar
    10     7    10 ar
    11    28    30 2
    12    28    27 1
    13     8     9 ar
    14    30    25 1
    15    10    11 ar
    16    27    26 1
    17     9    25 1
    18     9    12 ar
    19    25    26 1
    20    25    24 1
    21    11    12 ar
    22    12    13 1
    23    24    23 ar
    24    24    14 ar
    25    13    14 1
    26    23    17 ar
    27    14    15 ar
    28    17    18 1
    29    17    16 ar
    30    15    16 ar
    31    22    20 1
    32    19    18 1
    33    19    20 1
    34    20    21 1
    35     1    31 1
    36     3    32 1
    37     5    33 1
    38     8    34 1
    39    10    35 1
    40    11    36 1
    41    15    37 1
    42    16    38 1
    43    19    39 1
    44    19    40 1
    45    20    41 1
    46    21    42 1
    47    21    43 1
    48    21    44 1
    49    22    45 1
    50    22    46 1
    51    22    47 1
    52    23    48 1
    53    26    49 1
    54    26    50 1
    55    29    51 1
    56    29    52 1
    57    53    29 1
@<TRIPOS>SUBSTRUCTURE
     1 DWD         1 TEMP              0 ****  ****    0 ROOT
