@<TRIPOS>MOLECULE
molecule
   67    71     1     0     0
SMALL
bcc


@<TRIPOS>ATOM
      1 C4           0.0000     0.0000     0.0000 ca         1 DWF       0.723600
      2 C5           1.3950     0.0000     0.0000 ca         1 DWF      -0.441600
      3 C6           2.0550     0.0000     1.2140 ca         1 DWF       0.516200
      4 N1           1.3480     0.0000     2.3350 nb         1 DWF      -0.811000
      5 N3          -0.6450     0.0010     1.1610 nb         1 DWF      -0.856000
      6 CAA          4.2640     4.3640     6.5350 c3         1 DWF      -0.232300
      7 SBP          2.6380     3.5600     6.4890 s6         1 DWF       1.100000
      8 OAD          2.0870     3.5790     7.7980 o          1 DWF      -0.609300
      9 OAE          1.8900     4.1100     5.4140 o          1 DWF      -0.609300
     10 CBG          1.8270     1.0140     5.9890 ca         1 DWF      -0.073300
     11 CAS          1.1580     0.8920     4.7880 ca         1 DWF      -0.103000
     12 CAJ          1.3530     0.3670     7.1150 ca         1 DWF      -0.126000
     13 CAH          0.2050    -0.4000     7.0440 ca         1 DWF      -0.108000
     14 CAK         -0.4730    -0.5220     5.8460 ca         1 DWF      -0.154000
     15 CBJ          0.0040     0.1220     4.7120 ca         1 DWF       0.164600
     16 C2           0.0240     0.0000     2.3040 ca         1 DWF       0.973900
     17 OBC         -0.6880     0.0060    -1.1670 os         1 DWF      -0.340400
     18 CBN         -2.0420    -0.0980    -1.1110 ca         1 DWF       0.058100
     19 CBK         -2.8160     1.0290    -0.8610 ca         1 DWF       0.161900
     20 FAG         -2.2230     2.2280    -0.6740 f          1 DWF      -0.122900
     21 CAT         -4.1930     0.9230    -0.8050 ca         1 DWF      -0.198000
     22 CAR         -2.6520    -1.3270    -1.3080 ca         1 DWF      -0.084000
     23 CAQ         -4.0290    -1.4340    -1.2530 ca         1 DWF      -0.130000
     24 CBI         -4.8020    -0.3100    -0.9970 ca         1 DWF       0.079600
     25 NBA         -6.1970    -0.4180    -0.9390 ns         1 DWF      -0.485100
     26 CBE         -6.7670    -1.4750    -0.3260 c          1 DWF       0.696100
     27 OAC         -6.0720    -2.2980     0.2330 o          1 DWF      -0.565100
     28 CBO         -8.2650    -1.6330    -0.3320 cx         1 DWF      -0.322000
     29 CAU         -8.8880    -2.5070     0.7590 cx         1 DWF      -0.079900
     30 CAV         -9.0490    -0.9850     0.8110 cx         1 DWF      -0.079900
     31 CBD         -8.9110    -1.6550    -1.6940 c          1 DWF       0.697100
     32 OAB         -9.7300    -2.5080    -1.9640 o          1 DWF      -0.570100
     33 NAZ         -8.5770    -0.7260    -2.6120 ns         1 DWF      -0.482100
     34 CBH         -9.2700    -0.6620    -3.8270 ca         1 DWF       0.035600
     35 CAO         -8.5810    -0.4270    -5.0090 ca         1 DWF      -0.112000
     36 CAM         -9.2670    -0.3640    -6.2070 ca         1 DWF      -0.151500
     37 CBF        -10.6400    -0.5380    -6.2290 ca         1 DWF       0.124900
     38 FAF        -11.3090    -0.4780    -7.4010 f          1 DWF      -0.138900
     39 CAN        -11.3300    -0.7740    -5.0510 ca         1 DWF      -0.151500
     40 CAP        -10.6460    -0.8410    -3.8520 ca         1 DWF      -0.112000
     41 H1           1.9490    -0.0000    -0.9310 ha         1 DWF       0.158000
     42 H2           3.1380     0.0000     1.2490 h4         1 DWF       0.034100
     43 H3           4.1410     5.4130     6.7790 h1         1 DWF       0.095700
     44 H4           4.8810     3.8880     7.2870 h1         1 DWF       0.095700
     45 H5           4.7400     4.2720     5.5660 h1         1 DWF       0.095700
     46 H6           3.7310     1.4480     6.8370 h1         1 DWF       0.099700
     47 H7           3.5890     1.8310     5.1160 h1         1 DWF       0.099700
     48 H8           1.5330     1.3960     3.9050 ha         1 DWF       0.166000
     49 H9           1.8820     0.4620     8.0560 ha         1 DWF       0.137000
     50 H10         -0.1650    -0.9030     7.9290 ha         1 DWF       0.136000
     51 H11         -1.3720    -1.1230     5.7910 ha         1 DWF       0.134000
     52 H12         -1.6770    -0.0720     3.4910 hn         1 DWF       0.470800
     53 H13         -4.7970     1.8010    -0.6070 ha         1 DWF       0.150000
     54 H14         -2.0490    -2.2050    -1.5080 ha         1 DWF       0.155000
     55 H15         -4.5040    -2.3950    -1.4050 ha         1 DWF       0.165000
     56 H16         -6.7710     0.3120    -1.3120 hn         1 DWF       0.320500
     57 H17         -8.1930    -2.9280     1.4750 hc         1 DWF       0.095700
     58 H18         -9.7720    -3.0610     0.4660 hc         1 DWF       0.095700
     59 H19        -10.0320    -0.6100     0.5500 hc         1 DWF       0.095700
     60 H20         -8.4520    -0.4770     1.5580 hc         1 DWF       0.095700
     61 H21         -7.8630    -0.0550    -2.4080 hn         1 DWF       0.318500
     62 H22         -7.5070    -0.2910    -4.9920 ha         1 DWF       0.147500
     63 H23         -8.7290    -0.1810    -7.1290 ha         1 DWF       0.150000
     64 H24        -12.4040    -0.9110    -5.0710 ha         1 DWF       0.150000
     65 H25        -11.1860    -1.0250    -2.9310 ha         1 DWF       0.147500
     66 NBB         -0.6790     0.0010     3.4980 nu         1 DWF      -0.750300
     67 CAW          3.0790     1.8500     6.0720 c3         1 DWF      -0.145300
@<TRIPOS>BOND
     1    20    19 1
     2    19    21 ar
     3    19    18 ar
     4    17     1 1
     5    17    18 1
     6    21    24 ar
     7     5     1 ar
     8     5    16 ar
     9     1     2 ar
    10    27    26 2
    11    66    16 1
    12    66    15 1
    13    14    15 ar
    14    14    13 ar
    15    16     4 ar
    16    15    11 ar
    17    13    12 ar
    18     2     3 ar
    19    12    10 ar
    20    11    10 ar
    21    10    67 1
    22    18    22 ar
    23    67     7 1
    24     4     3 ar
    25    26    25 1
    26    26    28 1
    27    24    25 1
    28    24    23 ar
    29    29    30 1
    30    29    28 1
    31    22    23 ar
    32    30    28 1
    33     7     8 2
    34     7     6 1
    35     7     9 2
    36    28    31 1
    37    31    32 2
    38    31    33 1
    39    33    34 1
    40    34    35 ar
    41    34    40 ar
    42    35    36 ar
    43    40    39 ar
    44    36    37 ar
    45    39    37 ar
    46    37    38 1
    47     2    41 1
    48     3    42 1
    49     6    43 1
    50     6    44 1
    51     6    45 1
    52    67    46 1
    53    67    47 1
    54    11    48 1
    55    12    49 1
    56    13    50 1
    57    14    51 1
    58    66    52 1
    59    21    53 1
    60    22    54 1
    61    23    55 1
    62    25    56 1
    63    29    57 1
    64    29    58 1
    65    30    59 1
    66    30    60 1
    67    33    61 1
    68    35    62 1
    69    36    63 1
    70    39    64 1
    71    40    65 1
@<TRIPOS>SUBSTRUCTURE
     1 DWF         1 TEMP              0 ****  ****    0 ROOT
