@<TRIPOS>MOLECULE
DWF
   67    71     1     0     0
SMALL
bcc


@<TRIPOS>ATOM
      1 C4           0.0000     0.0000     0.0000 ca         1 DWF       0.692600
      2 C5           1.3950     0.0000     0.0000 ca         1 DWF      -0.433600
      3 C6           2.0550     0.0000     1.2140 ca         1 DWF       0.517200
      4 N1           1.3480     0.0000     2.3350 nb         1 DWF      -0.719000
      5 N3          -0.6450     0.0010     1.1610 nb         1 DWF      -0.756000
      6 CAA          4.2640     4.3640     6.5350 c3         1 DWF       0.010700
      7 SBP          2.6380     3.5600     6.4890 s6         1 DWF       0.793000
      8 OAD          2.0870     3.5790     7.7980 o          1 DWF      -0.583300
      9 OAE          1.8900     4.1100     5.4140 o          1 DWF      -0.583300
     10 CBG          1.8270     1.0140     5.9890 ca         1 DWF      -0.064300
     11 CAS          1.1580     0.8920     4.7880 ca         1 DWF      -0.088000
     12 CAJ          1.3530     0.3670     7.1150 ca         1 DWF      -0.100000
     13 CAH          0.2050    -0.4000     7.0440 ca         1 DWF      -0.077000
     14 CAK         -0.4730    -0.5220     5.8460 ca         1 DWF      -0.129000
     15 CBJ          0.0040     0.1220     4.7120 ca         1 DWF       0.001600
     16 C2           0.0240     0.0000     2.3040 ca         1 DWF       0.741900
     17 OBC         -0.6880     0.0060    -1.1670 os         1 DWF      -0.325400
     18 CBN         -2.0420    -0.0980    -1.1110 ca         1 DWF       0.079100
     19 CBK         -2.8160     1.0290    -0.8610 ca         1 DWF       0.125900
     20 FAG         -2.2230     2.2280    -0.6740 f          1 DWF      -0.117900
     21 CAT         -4.1930     0.9230    -0.8050 ca         1 DWF      -0.155000
     22 CAR         -2.6520    -1.3270    -1.3080 ca         1 DWF      -0.065000
     23 CAQ         -4.0290    -1.4340    -1.2530 ca         1 DWF      -0.093000
     24 CBI         -4.8020    -0.3100    -0.9970 ca         1 DWF      -0.070400
     25 NBA         -6.1970    -0.4180    -0.9390 ns         1 DWF      -0.059100
     26 CBE         -6.7670    -1.4750    -0.3260 c          1 DWF       0.608100
     27 OAC         -6.0720    -2.2980     0.2330 o          1 DWF      -0.604100
     28 CBO         -8.2650    -1.6330    -0.3320 cx         1 DWF      -0.335000
     29 CAU         -8.8880    -2.5070     0.7590 cx         1 DWF      -0.020400
     30 CAV         -9.0490    -0.9850     0.8110 cx         1 DWF      -0.020400
     31 CBD         -8.9110    -1.6550    -1.6940 c          1 DWF       0.609100
     32 OAB         -9.7300    -2.5080    -1.9640 o          1 DWF      -0.610100
     33 NAZ         -8.5770    -0.7260    -2.6120 ns         1 DWF      -0.059100
     34 CBH         -9.2700    -0.6620    -3.8270 ca         1 DWF      -0.104400
     35 CAO         -8.5810    -0.4270    -5.0090 ca         1 DWF      -0.081000
     36 CAM         -9.2670    -0.3640    -6.2070 ca         1 DWF      -0.115000
     37 CBF        -10.6400    -0.5380    -6.2290 ca         1 DWF       0.099900
     38 FAF        -11.3090    -0.4780    -7.4010 f          1 DWF      -0.126900
     39 CAN        -11.3300    -0.7740    -5.0510 ca         1 DWF      -0.115000
     40 CAP        -10.6460    -0.8410    -3.8520 ca         1 DWF      -0.081000
     41 H1           1.9490    -0.0000    -0.9310 ha         1 DWF       0.136000
     42 H2           3.1380     0.0000     1.2490 h4         1 DWF      -0.018900
     43 H3           4.1410     5.4130     6.7790 h1         1 DWF       0.059367
     44 H4           4.8810     3.8880     7.2870 h1         1 DWF       0.059367
     45 H5           4.7400     4.2720     5.5660 h1         1 DWF       0.059367
     46 H6           3.7310     1.4480     6.8370 h1         1 DWF       0.065200
     47 H7           3.5890     1.8310     5.1160 h1         1 DWF       0.065200
     48 H8           1.5330     1.3960     3.9050 ha         1 DWF       0.144000
     49 H9           1.8820     0.4620     8.0560 ha         1 DWF       0.112000
     50 H10         -0.1650    -0.9030     7.9290 ha         1 DWF       0.104000
     51 H11         -1.3720    -1.1230     5.7910 ha         1 DWF       0.107000
     52 H12         -1.6770    -0.0720     3.4910 hn         1 DWF       0.295800
     53 H13         -4.7970     1.8010    -0.6070 ha         1 DWF       0.123000
     54 H14         -2.0490    -2.2050    -1.5080 ha         1 DWF       0.121000
     55 H15         -4.5040    -2.3950    -1.4050 ha         1 DWF       0.137000
     56 H16         -6.7710     0.3120    -1.3120 hn         1 DWF       0.172500
     57 H17         -8.1930    -2.9280     1.4750 hc         1 DWF       0.059450
     58 H18         -9.7720    -3.0610     0.4660 hc         1 DWF       0.059450
     59 H19        -10.0320    -0.6100     0.5500 hc         1 DWF       0.059450
     60 H20         -8.4520    -0.4770     1.5580 hc         1 DWF       0.059450
     61 H21         -7.8630    -0.0550    -2.4080 hn         1 DWF       0.169500
     62 H22         -7.5070    -0.2910    -4.9920 ha         1 DWF       0.119500
     63 H23         -8.7290    -0.1810    -7.1290 ha         1 DWF       0.121500
     64 H24        -12.4040    -0.9110    -5.0710 ha         1 DWF       0.121500
     65 H25        -11.1860    -1.0250    -2.9310 ha         1 DWF       0.119500
     66 NBB         -0.6790     0.0010     3.4980 nu         1 DWF      -0.277300
     67 CAW          3.0790     1.8500     6.0720 c3         1 DWF       0.057700
@<TRIPOS>BOND
     1     1     2 ar  
     2     1     5 ar  
     3     1    17 1   
     4     2     3 ar  
     5     2    41 1   
     6     3     4 ar  
     7     3    42 1   
     8     4    16 ar  
     9     5    16 ar  
    10     6     7 1   
    11     6    43 1   
    12     6    44 1   
    13     6    45 1   
    14     7     8 2   
    15     7     9 2   
    16     7    67 1   
    17    10    11 ar  
    18    10    12 ar  
    19    10    67 1   
    20    11    15 ar  
    21    11    48 1   
    22    12    13 ar  
    23    12    49 1   
    24    13    14 ar  
    25    13    50 1   
    26    14    15 ar  
    27    14    51 1   
    28    15    66 1   
    29    16    66 1   
    30    17    18 1   
    31    18    19 ar  
    32    18    22 ar  
    33    19    20 1   
    34    19    21 ar  
    35    21    24 ar  
    36    21    53 1   
    37    22    23 ar  
    38    22    54 1   
    39    23    24 ar  
    40    23    55 1   
    41    24    25 1   
    42    25    26 1   
    43    25    56 1   
    44    26    27 2   
    45    26    28 1   
    46    28    29 1   
    47    28    30 1   
    48    28    31 1   
    49    29    30 1   
    50    29    57 1   
    51    29    58 1   
    52    30    59 1   
    53    30    60 1   
    54    31    32 2   
    55    31    33 1   
    56    33    34 1   
    57    33    61 1   
    58    34    35 ar  
    59    34    40 ar  
    60    35    36 ar  
    61    35    62 1   
    62    36    37 ar  
    63    36    63 1   
    64    37    38 1   
    65    37    39 ar  
    66    39    40 ar  
    67    39    64 1   
    68    40    65 1   
    69    46    67 1   
    70    47    67 1   
    71    52    66 1   
@<TRIPOS>SUBSTRUCTURE
     1 DWF         1 TEMP              0 ****  ****    0 ROOT
