@<TRIPOS>MOLECULE
DWG
   55    60     1     0     0
SMALL
bcc


@<TRIPOS>ATOM
      1 C4           0.0000     0.0000     0.0000 c2         1 DWG       0.253000
      2 C5           1.5120     0.0000     0.0000 c3         1 DWG      -0.057000
      3 C6           2.0050    -1.2030    -0.6890 c1         1 DWG      -0.152000
      4 C8           2.0080     0.0000     1.4510 c3         1 DWG      -0.076000
      5 C10          1.6600     2.4400     1.4440 ca         1 DWG      -0.104000
      6 C13          2.1920     4.7780     0.0670 ca         1 DWG      -0.140000
      7 C15          1.2370     2.5830     0.1370 ca         1 DWG      -0.168500
      8 C20          1.1580     1.5950     4.6750 c2         1 DWG      -0.178000
      9 C21          1.9370     1.2790     3.5810 c2         1 DWG       0.038000
     10 C26          7.6770     2.1030     5.5490 c2         1 DWG      -0.020000
     11 C28          7.8400     1.7310     7.9090 c2         1 DWG      -0.091000
     12 C12          2.6210     4.6320     1.3730 ca         1 DWG      -0.066000
     13 C14          1.5020     3.7520    -0.5520 ca         1 DWG      -0.066000
     14 C27          8.3920     2.1910     6.7270 c2         1 DWG      -0.100000
     15 C29          6.5710     1.1810     7.9160 c2         1 DWG      -0.116000
     16 C11          2.3500     3.4660     2.0630 ca         1 DWG      -0.168500
     17 C30          5.8460     1.1000     6.7430 cx         1 DWG      -0.151000
     18 C32          1.7720     1.6980     5.9190 c2         1 DWG      -0.003000
     19 C25          6.4000     1.5570     5.5530 cu         1 DWG      -0.105000
     20 C23          3.7900     1.1770     4.9510 c2         1 DWG      -0.004000
     21 C19         -0.3370     1.8510     4.5730 c3         1 DWG      -0.042000
     22 C18         -0.7560     2.0820     3.1210 c3         1 DWG      -0.141000
     23 C2          -0.7240     1.0310     0.8400 c3         1 DWG      -0.186000
     24 C16         -0.1530     0.9710     2.2600 c3         1 DWG      -0.051000
     25 C9           1.3650     1.1690     2.1970 c3         1 DWG       0.052000
     26 C1          -2.2210     0.7150     0.8730 c3         1 DWG      -0.131000
     27 N7           2.3700    -2.1320    -1.2330 n1         1 DWG      -0.036000
     28 N31          3.0720     1.4850     6.0210 n2         1 DWG      -0.121000
     29 N22          3.2370     1.0740     3.7530 n2         1 DWG      -0.135000
     30 N24          5.1510     0.9560     5.0900 nk         1 DWG       0.093000
     31 O33         -0.6170    -0.8010    -0.6610 o          1 DWG      -0.274000
     32 H2           1.4290    -0.8800     1.7030 hc         1 DWG       0.087000
     33 H4           2.5200     5.6820    -0.4320 ha         1 DWG       0.109000
     34 H5           0.6030     1.7140     0.0110 ha         1 DWG       0.164500
     35 H7           8.5380     1.5070     8.7080 ha         1 DWG       0.101000
     36 H8           3.2720     5.4020     1.7690 ha         1 DWG       0.110500
     37 H9           1.2210     4.2610    -1.4650 ha         1 DWG       0.110500
     38 H10          9.4240     2.5180     6.7490 ha         1 DWG       0.108000
     39 H11          6.0880     0.7810     8.7990 ha         1 DWG       0.103000
     40 H12          2.8050     3.0220     2.9400 ha         1 DWG       0.164500
     41 H13          4.8470     0.6830     6.6990 hx         1 DWG       0.182000
     42 H14          1.3100     1.8400     6.8880 h4         1 DWG       0.130000
     43 H15         -0.8880     1.0830     5.1000 hc         1 DWG       0.061500
     44 H16         -0.7520     2.7720     4.9650 hc         1 DWG       0.061500
     45 H17         -1.7080     1.5680     3.0610 hc         1 DWG       0.080500
     46 H18         -0.8440     3.1440     2.9230 hc         1 DWG       0.080500
     47 H19         -0.5620     2.0180     0.4240 hc         1 DWG       0.146000
     48 H20         -0.3760     0.0070     2.7010 hc         1 DWG       0.089000
     49 H21         -2.8490     1.4350     1.3840 hc         1 DWG       0.062333
     50 H22         -2.5750     0.6440    -0.1490 hc         1 DWG       0.062333
     51 H23         -2.2910    -0.3490     1.0640 hc         1 DWG       0.062333
     52 H24          5.3230     0.1580     4.5110 hn         1 DWG       0.039000
     53 H1           1.8730     0.8870    -0.5050 hc         1 DWG       0.146000
     54 H3           3.0490    -0.1750     1.2080 hc         1 DWG       0.087000
     55 H6           7.9390     2.5180     4.5830 ha         1 DWG       0.100000
@<TRIPOS>BOND
     1     1     2 1   
     2     1    23 1   
     3     1    31 1   
     4     2     3 1   
     5     2     4 1   
     6     2    53 1   
     7     3    27 1   
     8     4    25 1   
     9     4    32 1   
    10     4    54 1   
    11     5     7 1   
    12     5    16 1   
    13     5    25 1   
    14     6    12 1   
    15     6    13 1   
    16     6    33 1   
    17     7    13 1   
    18     7    34 1   
    19     8     9 1   
    20     8    18 1   
    21     8    21 1   
    22     9    25 1   
    23     9    29 1   
    24    10    14 1   
    25    10    19 1   
    26    10    55 1   
    27    11    14 1   
    28    11    15 1   
    29    11    35 1   
    30    12    16 1   
    31    12    36 1   
    32    13    37 1   
    33    14    38 1   
    34    15    17 1   
    35    15    39 1   
    36    16    40 1   
    37    17    19 1   
    38    17    30 1   
    39    17    41 1   
    40    18    28 1   
    41    18    42 1   
    42    19    30 1   
    43    20    28 1   
    44    20    29 1   
    45    20    30 1   
    46    21    22 1   
    47    21    43 1   
    48    21    44 1   
    49    22    24 1   
    50    22    45 1   
    51    22    46 1   
    52    23    24 1   
    53    23    26 1   
    54    23    47 1   
    55    24    25 1   
    56    24    48 1   
    57    26    49 1   
    58    26    50 1   
    59    26    51 1   
    60    30    52 1   
@<TRIPOS>SUBSTRUCTURE
     1 DWG         1 TEMP              0 ****  ****    0 ROOT
