@<TRIPOS>MOLECULE
molecule
   55    59     1     0     0
SMALL
bcc


@<TRIPOS>ATOM
      1 C4           0.0000     0.0000     0.0000 c          1 DWG       0.557100
      2 C5           1.5120     0.0000     0.0000 c3         1 DWG      -0.157600
      3 C6           2.0050    -1.2030    -0.6890 c1         1 DWG       0.218700
      4 C8           2.0080     0.0000     1.4510 c3         1 DWG      -0.037400
      5 C10          1.6600     2.4400     1.4440 ca         1 DWG      -0.107300
      6 C13          2.1920     4.7780     0.0670 ca         1 DWG      -0.152000
      7 C15          1.2370     2.5830     0.1370 ca         1 DWG      -0.154500
      8 C20          1.1580     1.5950     4.6750 ca         1 DWG      -0.321900
      9 C21          1.9370     1.2790     3.5810 ca         1 DWG       0.508600
     10 C26          7.6770     2.1030     5.5490 ca         1 DWG      -0.078500
     11 C28          7.8400     1.7310     7.9090 ca         1 DWG      -0.118000
     12 C12          2.6210     4.6320     1.3730 ca         1 DWG      -0.111500
     13 C14          1.5020     3.7520    -0.5520 ca         1 DWG      -0.111500
     14 C27          8.3920     2.1910     6.7270 ca         1 DWG      -0.144500
     15 C29          6.5710     1.1810     7.9160 ca         1 DWG      -0.144500
     16 C11          2.3500     3.4660     2.0630 ca         1 DWG      -0.154500
     17 C30          5.8460     1.1000     6.7430 ca         1 DWG      -0.078500
     18 C32          1.7720     1.6980     5.9190 ca         1 DWG       0.476200
     19 C25          6.4000     1.5570     5.5530 ca         1 DWG       0.097600
     20 C23          3.7900     1.1770     4.9510 ca         1 DWG       0.917900
     21 C19         -0.3370     1.8510     4.5730 c3         1 DWG      -0.034100
     22 C18         -0.7560     2.0820     3.1210 c3         1 DWG      -0.094400
     23 C2          -0.7240     1.0310     0.8400 c3         1 DWG      -0.196700
     24 C16         -0.1530     0.9710     2.2600 c3         1 DWG      -0.035700
     25 C9           1.3650     1.1690     2.1970 c3         1 DWG      -0.047000
     26 C1          -2.2210     0.7150     0.8730 c3         1 DWG      -0.103100
     27 N7           2.3700    -2.1320    -1.2330 n1         1 DWG      -0.348800
     28 N31          3.0720     1.4850     6.0210 nb         1 DWG      -0.751000
     29 N22          3.2370     1.0740     3.7530 nb         1 DWG      -0.778000
     30 N24          5.1510     0.9560     5.0900 nu         1 DWG      -0.785300
     31 O33         -0.6170    -0.8010    -0.6610 o          1 DWG      -0.491100
     32 H2           1.4290    -0.8800     1.7030 hc         1 DWG       0.076700
     33 H4           2.5200     5.6820    -0.4320 ha         1 DWG       0.134000
     34 H5           0.6030     1.7140     0.0110 ha         1 DWG       0.167500
     35 H7           8.5380     1.5070     8.7080 ha         1 DWG       0.129000
     36 H8           3.2720     5.4020     1.7690 ha         1 DWG       0.139000
     37 H9           1.2210     4.2610    -1.4650 ha         1 DWG       0.139000
     38 H10          9.4240     2.5180     6.7490 ha         1 DWG       0.135000
     39 H11          6.0880     0.7810     8.7990 ha         1 DWG       0.135000
     40 H12          2.8050     3.0220     2.9400 ha         1 DWG       0.167500
     41 H13          4.8470     0.6830     6.6990 ha         1 DWG       0.161500
     42 H14          1.3100     1.8400     6.8880 h4         1 DWG       0.038100
     43 H15         -0.8880     1.0830     5.1000 hc         1 DWG       0.054700
     44 H16         -0.7520     2.7720     4.9650 hc         1 DWG       0.054700
     45 H17         -1.7080     1.5680     3.0610 hc         1 DWG       0.064700
     46 H18         -0.8440     3.1440     2.9230 hc         1 DWG       0.064700
     47 H19         -0.5620     2.0180     0.4240 hc         1 DWG       0.116700
     48 H20         -0.3760     0.0070     2.7010 hc         1 DWG       0.073700
     49 H21         -2.8490     1.4350     1.3840 hc         1 DWG       0.053700
     50 H22         -2.5750     0.6440    -0.1490 hc         1 DWG       0.053700
     51 H23         -2.2910    -0.3490     1.0640 hc         1 DWG       0.053700
     52 H24          5.3230     0.1580     4.5110 hn         1 DWG       0.384800
     53 H1           1.8730     0.8870    -0.5050 hc         1 DWG       0.128700
     54 H3           3.0490    -0.1750     1.2080 hc         1 DWG       0.076700
     55 H6           7.9390     2.5180     4.5830 ha         1 DWG       0.161500
@<TRIPOS>BOND
     1    13     6 ar
     2    13     7 ar
     3     6    12 ar
     4     7     5 ar
     5    12    16 ar
     6    22    21 1
     7    22    24 1
     8     5    16 ar
     9     5    25 1
    10    21     8 1
    11    26    23 1
    12    23    24 1
    13    23     1 1
    14    24    25 1
    15     8    18 ar
    16     8     9 ar
    17    25     9 1
    18    25     4 1
    19    18    28 ar
    20     9    29 ar
    21     1    31 2
    22     1     2 1
    23    28    20 ar
    24    29    20 ar
    25    20    30 1
    26     4     2 1
    27     2     3 1
    28    17    15 ar
    29    17    19 ar
    30    30    19 1
    31    15    11 ar
    32    19    10 ar
    33     3    27 3
    34    11    14 ar
    35    10    14 ar
    36     4    32 1
    37     6    33 1
    38     7    34 1
    39    10    55 1
    40    11    35 1
    41    12    36 1
    42    13    37 1
    43    14    38 1
    44    15    39 1
    45    16    40 1
    46    17    41 1
    47    18    42 1
    48    21    43 1
    49    21    44 1
    50    22    45 1
    51    22    46 1
    52    23    47 1
    53    24    48 1
    54    26    49 1
    55    26    50 1
    56    26    51 1
    57    30    52 1
    58     2    53 1
    59     4    54 1
@<TRIPOS>SUBSTRUCTURE
     1 DWG         1 TEMP              0 ****  ****    0 ROOT
