@<TRIPOS>MOLECULE
DWH
   38    39     1     0     0
SMALL
bcc


@<TRIPOS>ATOM
      1 C1           0.0000     0.0000     0.0000 ca         1 DWH      -0.259500
      2 N1          -1.1240    -1.5820    -1.9520 nz         1 DWH      -0.133500
      3 O1          -2.1630     0.5430    -1.2510 o          1 DWH      -0.498800
      4 S1          -0.8790    -0.0010    -1.5270 sy         1 DWH       0.931200
      5 C2           1.3830     0.0000     0.0000 ca         1 DWH       0.035500
      6 O2           0.0030     0.5450    -2.4980 o          1 DWH      -0.498800
      7 C3           2.0750     0.0000     1.1950 ca         1 DWH      -0.138500
      8 C4           1.3810     0.0000     2.3970 ca         1 DWH       0.112600
      9 C5          -0.0080    -0.0000     2.3950 ca         1 DWH      -0.138500
     10 C6          -0.6940     0.0040     1.1960 ca         1 DWH       0.035500
     11 N7           2.0790     0.0000     3.6090 nu         1 DWH      -0.276300
     12 C8           1.6010     0.7250     4.6830 ca         1 DWH       0.761900
     13 N9           2.1990     0.6370     5.8650 nb         1 DWH      -0.777000
     14 C10          1.7360     1.3380     6.8950 ca         1 DWH       0.783900
     15 N11          2.3560     1.2490     8.1250 nu         1 DWH      -0.431900
     16 N12          0.6730     2.1240     6.7390 nb         1 DWH      -0.756000
     17 C13          0.0800     2.2090     5.5600 ca         1 DWH       0.721000
     18 Cl13        -1.3060     3.2360     5.3600 cl         1 DWH      -0.012000
     19 N14          0.5410     1.5180     4.5320 nb         1 DWH      -0.792000
     20 C15          1.8440     2.0210     9.2600 c3         1 DWH       0.108800
     21 C16          2.6920     1.7490    10.4760 c          1 DWH       0.692100
     22 C17          3.2660     2.0430    12.7690 c3         1 DWH       0.272700
     23 O17          2.4070     2.3520    11.6410 os         1 DWH      -0.403900
     24 O18          3.6270     0.9890    10.4020 o          1 DWH      -0.586000
     25 HN11         3.1410     0.6410     8.2460 hn         1 DWH       0.333800
     26 HN1         -1.6550    -2.0410    -1.2390 hn         1 DWH       0.311800
     27 H2           1.9240    -0.0000    -0.9390 ha         1 DWH       0.123500
     28 H3           3.1590     0.0000     1.1940 ha         1 DWH       0.145000
     29 H5          -0.5520     0.0010     3.3310 ha         1 DWH       0.145000
     30 H15          0.8200     1.7310     9.4620 h1         1 DWH       0.054700
     31 H15A         1.8800     3.0780     9.0240 h1         1 DWH       0.054700
     32 H6          -1.7770     0.0030     1.1920 ha         1 DWH       0.123500
     33 HN7          2.9170    -0.5380     3.7030 hn         1 DWH       0.309800
     34 H17          4.2850     2.3270    12.5360 h1         1 DWH       0.007033
     35 H17A         3.2250     0.9800    12.9740 h1         1 DWH       0.007033
     36 H17B         2.9290     2.5920    13.6410 h1         1 DWH       0.007033
     37 HN1A        -1.6240    -1.6210    -2.8180 hn         1 DWH       0.311800
     38 H13         -0.2400    -2.0400    -2.0560 hn         1 DWH       0.311800
@<TRIPOS>BOND
     1     1     4 1   
     2     1     5 ar  
     3     1    10 ar  
     4     2     4 1   
     5     2    26 1   
     6     2    37 1   
     7     2    38 1   
     8     3     4 2   
     9     4     6 2   
    10     5     7 ar  
    11     5    27 1   
    12     7     8 ar  
    13     7    28 1   
    14     8     9 ar  
    15     8    11 1   
    16     9    10 ar  
    17     9    29 1   
    18    10    32 1   
    19    11    12 1   
    20    11    33 1   
    21    12    13 ar  
    22    12    19 ar  
    23    13    14 ar  
    24    14    15 1   
    25    14    16 ar  
    26    15    20 1   
    27    15    25 1   
    28    16    17 ar  
    29    17    18 1   
    30    17    19 ar  
    31    20    21 1   
    32    20    30 1   
    33    20    31 1   
    34    21    23 1   
    35    21    24 2   
    36    22    23 1   
    37    22    34 1   
    38    22    35 1   
    39    22    36 1   
@<TRIPOS>SUBSTRUCTURE
     1 DWH         1 TEMP              0 ****  ****    0 ROOT
