@<TRIPOS>MOLECULE
molecule
   38    39     1     0     0
SMALL
bcc


@<TRIPOS>ATOM
      1 C1           0.0000     0.0000     0.0000 ca         1 DWH      -0.369500
      2 N1          -1.1240    -1.5820    -1.9520 nz         1 DWH      -0.805500
      3 O1          -2.1630     0.5430    -1.2510 o          1 DWH      -0.521800
      4 S1          -0.8790    -0.0010    -1.5270 sy         1 DWH       1.223200
      5 C2           1.3830     0.0000     0.0000 ca         1 DWH      -0.009000
      6 O2           0.0030     0.5450    -2.4980 o          1 DWH      -0.521800
      7 C3           2.0750     0.0000     1.1950 ca         1 DWH      -0.153000
      8 C4           1.3810     0.0000     2.3970 ca         1 DWH       0.272600
      9 C5          -0.0080    -0.0000     2.3950 ca         1 DWH      -0.153000
     10 C6          -0.6940     0.0040     1.1960 ca         1 DWH      -0.009000
     11 N7           2.0790     0.0000     3.6090 nu         1 DWH      -0.748300
     12 C8           1.6010     0.7250     4.6830 ca         1 DWH       0.996900
     13 N9           2.1990     0.6370     5.8650 nb         1 DWH      -0.877000
     14 C10          1.7360     1.3380     6.8950 ca         1 DWH       1.018900
     15 N11          2.3560     1.2490     8.1250 nu         1 DWH      -0.865900
     16 N12          0.6730     2.1240     6.7390 nb         1 DWH      -0.852000
     17 C13          0.0800     2.2090     5.5600 ca         1 DWH       0.876000
     18 Cl13        -1.3060     3.2360     5.3600 cl         1 DWH      -0.076000
     19 N14          0.5410     1.5180     4.5320 nb         1 DWH      -0.888000
     20 C15          1.8440     2.0210     9.2600 c3         1 DWH       0.193800
     21 C16          2.6920     1.7490    10.4760 c          1 DWH       0.624100
     22 C17          3.2660     2.0430    12.7690 c3         1 DWH       0.139700
     23 O17          2.4070     2.3520    11.6410 os         1 DWH      -0.417900
     24 O18          3.6270     0.9890    10.4020 o          1 DWH      -0.549000
     25 HN11         3.1410     0.6410     8.2460 hn         1 DWH       0.491800
     26 HN1         -1.6550    -2.0410    -1.2390 hn         1 DWH       0.490467
     27 H2           1.9240    -0.0000    -0.9390 ha         1 DWH       0.156500
     28 H3           3.1590     0.0000     1.1940 ha         1 DWH       0.176500
     29 H5          -0.5520     0.0010     3.3310 ha         1 DWH       0.176500
     30 H15          0.8200     1.7310     9.4620 h1         1 DWH       0.092200
     31 H15A         1.8800     3.0780     9.0240 h1         1 DWH       0.092200
     32 H6          -1.7770     0.0030     1.1920 ha         1 DWH       0.156500
     33 HN7          2.9170    -0.5380     3.7030 hn         1 DWH       0.487800
     34 H17          4.2850     2.3270    12.5360 h1         1 DWH       0.057367
     35 H17A         3.2250     0.9800    12.9740 h1         1 DWH       0.057367
     36 H17B         2.9290     2.5920    13.6410 h1         1 DWH       0.057367
     37 HN1A        -1.6240    -1.6210    -2.8180 hn         1 DWH       0.490467
     38 H13         -0.2400    -2.0400    -2.0560 hn         1 DWH       0.490467
@<TRIPOS>BOND
     1     5     1 ar
     2    10     1 ar
     3     1     4 1
     4     2    26 1
     5     2     4 1
     6     2    37 1
     7     3     4 2
     8     4     6 2
     9     7     5 ar
    10     5    27 1
    11     8     7 ar
    12    28     7 1
    13    11     8 1
    14     8     9 ar
    15    29     9 1
    16     9    10 ar
    17    10    32 1
    18    12    11 1
    19    11    33 1
    20    13    12 ar
    21    19    12 ar
    22    14    13 ar
    23    15    14 1
    24    16    14 ar
    25    25    15 1
    26    15    20 1
    27    16    17 ar
    28    18    17 1
    29    17    19 ar
    30    21    20 1
    31    20    30 1
    32    20    31 1
    33    24    21 2
    34    23    21 1
    35    35    22 1
    36    36    22 1
    37    22    34 1
    38    22    23 1
    39    38     2 1
@<TRIPOS>SUBSTRUCTURE
     1 DWH         1 TEMP              0 ****  ****    0 ROOT
