@<TRIPOS>MOLECULE
DWJ
   54    58     1     0     0
SMALL
bcc


@<TRIPOS>ATOM
      1 C4           0.0000     0.0000     0.0000 c3         1 DWJ      -0.082600
      2 C5          -0.4940    -0.1480    -1.3790 c1         1 DWJ       0.195700
      3 C7           1.5340     0.0000     0.0000 c3         1 DWJ      -0.000400
      4 C8           2.0290     0.0000     1.4460 c3         1 DWJ      -0.013000
      5 C10          2.2560     2.1240     2.7490 ca         1 DWJ      -0.198500
      6 C13         -0.4890     2.3580     2.9790 ca         1 DWJ      -0.059500
      7 C15          1.6040    -1.3070     2.1270 c3         1 DWJ      -0.036700
      8 C17          3.7450    -1.6690     3.3680 c3         1 DWJ       0.105900
      9 C22          8.3580     1.0140     0.9120 ca         1 DWJ      -0.149600
     10 C24         10.0000     0.7220     2.7440 ca         1 DWJ      -0.089000
     11 C26         10.6970     0.4940     0.5590 ca         1 DWJ      -0.089000
     12 C25         11.0100     0.4690     1.7800 ca         1 DWJ      -0.104000
     13 C12          0.3350     3.3150     3.5410 ca         1 DWJ      -0.103000
     14 C11          1.7080     3.1980     3.4270 ca         1 DWJ      -0.059500
     15 C23          8.3590     1.0640     2.3240 ca         1 DWJ      -0.092500
     16 C27          9.3540     0.7640    -0.0460 ca         1 DWJ      -0.092500
     17 C14          0.0580     1.2900     2.2930 ca         1 DWJ      -0.198500
     18 C19          5.6070    -0.3750     2.1660 cc         1 DWJ      -0.187300
     19 C9           1.4310     1.1700     2.1840 ca         1 DWJ      -0.135300
     20 C18          4.3170    -0.6850     2.3780 cd         1 DWJ      -0.286600
     21 C30          3.5320     0.0840     1.4930 cd         1 DWJ       0.374600
     22 C3          -0.4910    -1.1570     0.8400 c          1 DWJ       0.668100
     23 C16          2.2400    -1.4000     3.5120 c3         1 DWJ      -0.082400
     24 C2           0.0770    -1.3350     2.2320 c3         1 DWJ      -0.312700
     25 C1          -0.3760    -2.6790     2.8070 c3         1 DWJ       0.035900
     26 N6          -0.8600    -0.2750    -2.4470 n1         1 DWJ      -0.370800
     27 N29          4.3260     0.8240     0.7790 nc         1 DWJ      -0.598800
     28 N20          5.6460     0.5630     1.1760 n          1 DWJ       0.332300
     29 O31         -1.0870    -2.0040     0.6800 o          1 DWJ      -0.448100
     30 O28          6.8440     2.2810    -0.0080 o          1 DWJ      -0.399100
     31 H1          -0.3610     0.9310     0.4210 hc         1 DWJ       0.109700
     32 H2           1.7670    -0.9970    -0.3550 hc         1 DWJ       0.041700
     33 H3           1.9720     0.7520    -0.6450 hc         1 DWJ       0.041700
     34 H4           3.2780     1.7690     2.6960 ha         1 DWJ       0.187000
     35 H5          -1.5630     2.2450     3.0610 ha         1 DWJ       0.104000
     36 H6           1.9340    -2.1450     1.5260 hc         1 DWJ       0.043700
     37 H7           3.8430    -2.7430     3.2700 hc         1 DWJ       0.025200
     38 H8           3.9010    -1.3550     4.3930 hc         1 DWJ       0.025200
     39 H9          10.2750     0.9210     3.7730 ha         1 DWJ       0.091500
     40 H10         11.3880     0.1070    -0.1800 ha         1 DWJ       0.091500
     41 H11         11.9810     0.2330     2.1970 ha         1 DWJ       0.115000
     42 H12         -0.1040     4.0850     4.1630 ha         1 DWJ       0.105000
     43 H13          2.2430     4.1150     3.6410 ha         1 DWJ       0.104000
     44 H14          7.7600     0.9440     3.2180 ha         1 DWJ       0.145500
     45 H15          9.0940     0.3910    -1.0290 ha         1 DWJ       0.145500
     46 H16         -0.0090     0.2930     1.8750 ha         1 DWJ       0.187000
     47 H17          6.4480    -0.7070     2.7630 h4         1 DWJ       0.147000
     48 H18          1.5510    -0.9420     4.2100 hc         1 DWJ       0.025200
     49 H19          1.9540    -2.4010     3.8110 hc         1 DWJ       0.025200
     50 H20         -0.2600    -0.5270     2.8700 hc         1 DWJ       0.097700
     51 H21          0.0770    -2.7430     3.7880 hc         1 DWJ       0.011033
     52 H22         -1.4240    -2.6390     3.0790 hc         1 DWJ       0.011033
     53 H23          0.0770    -3.4840     2.2410 hc         1 DWJ       0.011033
     54 C21          6.8300     1.3300     0.4400 c          1 DWJ       0.584500
@<TRIPOS>BOND
     1     1     2 1   
     2     1     3 1   
     3     1    22 1   
     4     1    31 1   
     5     2    26 3   
     6     3     4 1   
     7     3    32 1   
     8     3    33 1   
     9     4     7 1   
    10     4    19 1   
    11     4    21 1   
    12     5    14 ar  
    13     5    19 ar  
    14     5    34 1   
    15     6    13 ar  
    16     6    17 ar  
    17     6    35 1   
    18     7    23 1   
    19     7    24 1   
    20     7    36 1   
    21     8    20 1   
    22     8    23 1   
    23     8    37 1   
    24     8    38 1   
    25     9    15 ar  
    26     9    16 ar  
    27     9    54 1   
    28    10    12 ar  
    29    10    15 ar  
    30    10    39 1   
    31    11    12 ar  
    32    11    16 ar  
    33    11    40 1   
    34    12    41 1   
    35    13    14 ar  
    36    13    42 1   
    37    14    43 1   
    38    15    44 1   
    39    16    45 1   
    40    17    19 ar  
    41    17    46 1   
    42    18    20 2   
    43    18    28 1   
    44    18    47 1   
    45    20    21 1   
    46    21    27 2   
    47    22    24 1   
    48    22    29 2   
    49    23    48 1   
    50    23    49 1   
    51    24    25 1   
    52    24    50 1   
    53    25    51 1   
    54    25    52 1   
    55    25    53 1   
    56    27    28 1   
    57    28    54 1   
    58    30    54 2   
@<TRIPOS>SUBSTRUCTURE
     1 DWJ         1 TEMP              0 ****  ****    0 ROOT
