@<TRIPOS>MOLECULE
molecule
   54    58     1     0     0
SMALL
bcc


@<TRIPOS>ATOM
      1 C4           0.0000     0.0000     0.0000 c3         1 DWJ      -0.156600
      2 C5          -0.4940    -0.1480    -1.3790 c1         1 DWJ       0.214700
      3 C7           1.5340     0.0000     0.0000 c3         1 DWJ      -0.044400
      4 C8           2.0290     0.0000     1.4460 c3         1 DWJ      -0.029000
      5 C10          2.2560     2.1240     2.7490 ca         1 DWJ      -0.178000
      6 C13         -0.4890     2.3580     2.9790 ca         1 DWJ      -0.107000
      7 C15          1.6040    -1.3070     2.1270 c3         1 DWJ      -0.059700
      8 C17          3.7450    -1.6690     3.3680 c3         1 DWJ       0.019900
      9 C22          8.3580     1.0140     0.9120 ca         1 DWJ      -0.129600
     10 C24         10.0000     0.7220     2.7440 ca         1 DWJ      -0.120000
     11 C26         10.6970     0.4940     0.5590 ca         1 DWJ      -0.120000
     12 C25         11.0100     0.4690     1.7800 ca         1 DWJ      -0.128000
     13 C12          0.3350     3.3150     3.5410 ca         1 DWJ      -0.122000
     14 C11          1.7080     3.1980     3.4270 ca         1 DWJ      -0.107000
     15 C23          8.3590     1.0640     2.3240 ca         1 DWJ      -0.125000
     16 C27          9.3540     0.7640    -0.0460 ca         1 DWJ      -0.125000
     17 C14          0.0580     1.2900     2.2930 ca         1 DWJ      -0.178000
     18 C19          5.6070    -0.3750     2.1660 cc         1 DWJ      -0.085300
     19 C9           1.4310     1.1700     2.1840 ca         1 DWJ      -0.127300
     20 C18          4.3170    -0.6850     2.3780 cd         1 DWJ      -0.279600
     21 C30          3.5320     0.0840     1.4930 cd         1 DWJ       0.354600
     22 C3          -0.4910    -1.1570     0.8400 c          1 DWJ       0.646100
     23 C16          2.2400    -1.4000     3.5120 c3         1 DWJ      -0.109400
     24 C2           0.0770    -1.3350     2.2320 c3         1 DWJ      -0.307700
     25 C1          -0.3760    -2.6790     2.8070 c3         1 DWJ      -0.060100
     26 N6          -0.8600    -0.2750    -2.4470 n1         1 DWJ      -0.355800
     27 N29          4.3260     0.8240     0.7790 nc         1 DWJ      -0.504800
     28 N20          5.6460     0.5630     1.1760 n          1 DWJ      -0.000700
     29 O31         -1.0870    -2.0040     0.6800 o          1 DWJ      -0.414100
     30 O28          6.8440     2.2810    -0.0080 o          1 DWJ      -0.368100
     31 H1          -0.3610     0.9310     0.4210 hc         1 DWJ       0.132700
     32 H2           1.7670    -0.9970    -0.3550 hc         1 DWJ       0.071700
     33 H3           1.9720     0.7520    -0.6450 hc         1 DWJ       0.071700
     34 H4           3.2780     1.7690     2.6960 ha         1 DWJ       0.185500
     35 H5          -1.5630     2.2450     3.0610 ha         1 DWJ       0.132500
     36 H6           1.9340    -2.1450     1.5260 hc         1 DWJ       0.063700
     37 H7           3.8430    -2.7430     3.2700 hc         1 DWJ       0.057700
     38 H8           3.9010    -1.3550     4.3930 hc         1 DWJ       0.057700
     39 H9          10.2750     0.9210     3.7730 ha         1 DWJ       0.125500
     40 H10         11.3880     0.1070    -0.1800 ha         1 DWJ       0.125500
     41 H11         11.9810     0.2330     2.1970 ha         1 DWJ       0.145000
     42 H12         -0.1040     4.0850     4.1630 ha         1 DWJ       0.132000
     43 H13          2.2430     4.1150     3.6410 ha         1 DWJ       0.132500
     44 H14          7.7600     0.9440     3.2180 ha         1 DWJ       0.181500
     45 H15          9.0940     0.3910    -1.0290 ha         1 DWJ       0.181500
     46 H16         -0.0090     0.2930     1.8750 ha         1 DWJ       0.185500
     47 H17          6.4480    -0.7070     2.7630 h4         1 DWJ       0.170000
     48 H18          1.5510    -0.9420     4.2100 hc         1 DWJ       0.045200
     49 H19          1.9540    -2.4010     3.8110 hc         1 DWJ       0.045200
     50 H20         -0.2600    -0.5270     2.8700 hc         1 DWJ       0.098700
     51 H21          0.0770    -2.7430     3.7880 hc         1 DWJ       0.041700
     52 H22         -1.4240    -2.6390     3.0790 hc         1 DWJ       0.041700
     53 H23          0.0770    -3.4840     2.2410 hc         1 DWJ       0.041700
     54 C21          6.8300     1.3300     0.4400 c          1 DWJ       0.638500
@<TRIPOS>BOND
     1    26     2 3
     2    16    11 ar
     3    16     9 ar
     4    11    12 ar
     5    30    54 2
     6     2     1 1
     7    54     9 1
     8    54    28 1
     9     9    15 ar
    10    12    10 ar
    11     3     1 1
    12     3     4 1
    13    28    27 1
    14    28    18 1
    15    27    21 2
    16     1    22 1
    17    15    10 ar
    18    18    20 2
    19    21     4 1
    20    21    20 1
    21    22    29 2
    22    22    24 1
    23     4     7 1
    24     4    19 1
    25    20     8 1
    26     7    24 1
    27     7    23 1
    28    25    24 1
    29     8    23 1
    30    19    17 ar
    31    19     5 ar
    32    17     6 ar
    33     5    14 ar
    34     6    13 ar
    35    14    13 ar
    36     1    31 1
    37     3    32 1
    38     3    33 1
    39     5    34 1
    40     6    35 1
    41     7    36 1
    42     8    37 1
    43     8    38 1
    44    10    39 1
    45    11    40 1
    46    12    41 1
    47    13    42 1
    48    14    43 1
    49    15    44 1
    50    16    45 1
    51    17    46 1
    52    18    47 1
    53    23    48 1
    54    23    49 1
    55    24    50 1
    56    25    51 1
    57    25    52 1
    58    25    53 1
@<TRIPOS>SUBSTRUCTURE
     1 DWJ         1 TEMP              0 ****  ****    0 ROOT
