@<TRIPOS>MOLECULE
DWK
  105   108     1     0     0
SMALL
bcc


@<TRIPOS>ATOM
      1 OAE          0.0000     0.0000     0.0000 o          1 DWK      -0.717833
      2 PBN          1.6110     0.0000     0.0000 p5         1 DWK       0.438000
      3 OAF          2.1040     0.0000     1.3950 o          1 DWK      -0.717833
      4 OAD          2.1470    -1.3140    -0.7590 o          1 DWK      -0.717833
      5 CBM          2.2150     1.4820    -0.8550 ca         1 DWK       0.029500
      6 CAN          2.4450     2.6440    -0.1450 ca         1 DWK      -0.037000
      7 CAI          2.9050     3.7730    -0.7960 ca         1 DWK      -0.208000
      8 CAH          3.1360     3.7420    -2.1590 ca         1 DWK      -0.146000
      9 CAM          2.9080     2.5820    -2.8740 ca         1 DWK      -0.291000
     10 CBL          2.4510     1.4460    -2.2220 ca         1 DWK       0.171100
     11 OBG          2.2250     0.3040    -2.9230 os         1 DWK      -0.167900
     12 CAZ          2.4790     0.3450    -4.3290 c3         1 DWK       0.126400
     13 CBH          2.1740    -1.0020    -4.9330 c          1 DWK       0.521100
     14 OAB          1.7790    -1.9080    -4.2290 o          1 DWK      -0.490100
     15 NBC          2.3400    -1.2010    -6.2560 ns         1 DWK      -0.091100
     16 CBJ          2.1510    -2.4750    -6.8010 ca         1 DWK      -0.057400
     17 CAO          1.1680    -3.3080    -6.2900 ca         1 DWK      -0.037000
     18 CAK          2.9440    -2.9040    -7.8590 ca         1 DWK      -0.144000
     19 CAJ          2.7610    -4.1610    -8.4010 ca         1 DWK      -0.105000
     20 CAL          1.7890    -5.0010    -7.8970 ca         1 DWK      -0.134000
     21 CBK          0.9840    -4.5780    -6.8380 ca         1 DWK      -0.133600
     22 CBI         -0.0590    -5.4760    -6.2950 c          1 DWK       0.591700
     23 OAC         -0.7590    -5.1050    -5.3730 o          1 DWK      -0.607100
     24 NBB         -0.2320    -6.7030    -6.8230 ns         1 DWK      -0.225900
     25 CAS         -1.2650    -7.5920    -6.2850 c3         1 DWK       0.058000
     26 CAQ         -1.2520    -8.9150    -7.0550 c3         1 DWK      -0.049400
     27 CAU         -2.3300    -9.8430    -6.4930 c3         1 DWK       0.216400
     28 OBE         -2.3180   -11.0770    -7.2130 os         1 DWK      -0.413600
     29 CAW         -3.2930   -12.0220    -6.7640 c3         1 DWK       0.210400
     30 CAY         -3.1890   -13.2980    -7.6000 c3         1 DWK       0.207400
     31 OBF         -1.9250   -13.9210    -7.3650 os         1 DWK      -0.387600
     32 CAX         -1.7250   -15.1290    -8.1020 c3         1 DWK       0.207400
     33 CAV         -0.3460   -15.7030    -7.7740 c3         1 DWK       0.211400
     34 OBD         -0.3060   -16.0900    -6.3980 os         1 DWK      -0.407600
     35 CAT          0.9450   -16.6430    -5.9860 c3         1 DWK       0.217400
     36 CAP          0.8730   -17.0180    -4.5040 c3         1 DWK      -0.050400
     37 CAR          2.2120   -17.6100    -4.0620 c3         1 DWK       0.059000
     38 NBA          2.1430   -17.9690    -2.6430 ns         1 DWK      -0.219900
     39 H3           2.2650     2.6700     0.9230 ha         1 DWK       0.111000
     40 H4           3.0850     4.6840    -0.2380 ha         1 DWK       0.058000
     41 H5           3.4950     4.6290    -2.6680 ha         1 DWK       0.052000
     42 H6           3.0910     2.5580    -3.9410 ha         1 DWK       0.071000
     43 H7           1.8490     1.0970    -4.7880 h1         1 DWK      -0.011800
     44 H8           3.5190     0.5910    -4.5020 h1         1 DWK      -0.011800
     45 H9           2.5650    -0.4290    -6.8530 hn         1 DWK       0.154500
     46 H10          0.5460    -2.9750    -5.4690 ha         1 DWK       0.187000
     47 H11          3.7090    -2.2500    -8.2590 ha         1 DWK       0.096000
     48 H12          3.3840    -4.4900    -9.2250 ha         1 DWK       0.086000
     49 H13          1.6490    -5.9860    -8.3250 ha         1 DWK       0.089000
     50 H14          0.3250    -6.9970    -7.6010 hn         1 DWK       0.175500
     51 H15         -2.2360    -7.1230    -6.3900 h1         1 DWK       0.027200
     52 H16         -1.0670    -7.7820    -5.2370 h1         1 DWK       0.027200
     53 H17         -0.2810    -9.3840    -6.9500 hc         1 DWK       0.020700
     54 H18         -1.4500    -8.7250    -8.1030 hc         1 DWK       0.020700
     55 H19         -2.1320   -10.0340    -5.4450 h1         1 DWK      -0.005300
     56 H20         -3.3010    -9.3740    -6.5970 h1         1 DWK      -0.005300
     57 H21         -3.1150   -12.2570    -5.7220 h1         1 DWK      -0.002300
     58 H22         -4.2840   -11.5980    -6.8740 h1         1 DWK      -0.002300
     59 H23         -3.2790   -13.0490    -8.6510 h1         1 DWK      -0.010800
     60 H24         -3.9840   -13.9780    -7.3210 h1         1 DWK      -0.010800
     61 H25         -1.7850   -14.9180    -9.1630 h1         1 DWK      -0.010300
     62 H26         -2.4890   -15.8470    -7.8320 h1         1 DWK      -0.010300
     63 H27         -0.1580   -16.5690    -8.3970 h1         1 DWK      -0.004800
     64 H28          0.4120   -14.9520    -7.9600 h1         1 DWK      -0.004800
     65 H29          1.1590   -17.5280    -6.5730 h1         1 DWK      -0.008800
     66 H30          1.7300   -15.9110    -6.1360 h1         1 DWK      -0.008800
     67 H31          0.0880   -17.7490    -4.3550 hc         1 DWK       0.025700
     68 H32          0.6580   -16.1330    -3.9180 hc         1 DWK       0.025700
     69 H33          2.9970   -16.8790    -4.2120 h1         1 DWK       0.021700
     70 H34          2.4270   -18.4950    -4.6480 h1         1 DWK       0.021700
     71 H35          1.2940   -17.8310    -2.1320 hn         1 DWK       0.182500
     72 C1           3.2150   -18.5140    -2.0330 c          1 DWK       0.613700
     73 C2           3.1460   -18.8750    -0.6030 ca         1 DWK      -0.211600
     74 O1           4.2390   -18.7050    -2.6600 o          1 DWK      -0.664100
     75 C3           4.2560   -19.4380     0.0300 ca         1 DWK      -0.038000
     76 C4           4.1880   -19.7740     1.3640 ca         1 DWK      -0.147500
     77 C5           3.0150   -19.5540     2.0800 ca         1 DWK      -0.021400
     78 C6           1.9080   -18.9920     1.4520 ca         1 DWK      -0.147500
     79 C7           1.9710   -18.6490     0.1200 ca         1 DWK      -0.038000
     80 N1           2.9500   -19.8960     3.4300 ns         1 DWK      -0.080100
     81 C9           3.6280   -20.9660     3.8870 c          1 DWK       0.526100
     82 C10          3.6500   -21.2700     5.3640 c3         1 DWK       0.124400
     83 O3           4.4290   -22.4450     5.5970 os         1 DWK      -0.178900
     84 O2           4.2210   -21.6860     3.1110 o          1 DWK      -0.510100
     85 C8           4.5510   -22.8590     6.8860 ca         1 DWK       0.167100
     86 C11          3.9340   -22.1490     7.9040 ca         1 DWK      -0.287000
     87 C12          4.0600   -22.5710     9.2140 ca         1 DWK      -0.142000
     88 C13          4.8000   -23.7010     9.5080 ca         1 DWK      -0.208000
     89 C14          5.4160   -24.4110     8.4940 ca         1 DWK      -0.034000
     90 C15          5.2880   -23.9960     7.1830 ca         1 DWK       0.025500
     91 P1           6.0970   -24.9280     5.8530 p5         1 DWK       0.447000
     92 O6           5.0960   -26.0650     5.3090 o          1 DWK      -0.723833
     93 O4           6.4460   -24.0070     4.7480 o          1 DWK      -0.723833
     94 O5           7.4360   -25.6180     6.4190 o          1 DWK      -0.723833
     95 H36          5.1690   -19.6100    -0.5270 ha         1 DWK       0.105000
     96 H37          5.0490   -20.2110     1.8560 ha         1 DWK       0.133000
     97 H38          0.9970   -18.8200     2.0120 ha         1 DWK       0.133000
     98 H39          1.1090   -18.2120    -0.3690 ha         1 DWK       0.105000
     99 H40          2.4180   -19.3320     4.0640 hn         1 DWK       0.159500
    100 H41          4.0880   -20.4350     5.8970 h1         1 DWK      -0.008300
    101 H42          2.6380   -21.4320     5.7140 h1         1 DWK      -0.008300
    102 H43          3.3540   -21.2630     7.6740 ha         1 DWK       0.074000
    103 H44          3.5790   -22.0160    10.0100 ha         1 DWK       0.055000
    104 H45          4.9000   -24.0300    10.5360 ha         1 DWK       0.059000
    105 H46          5.9930   -25.2970     8.7270 ha         1 DWK       0.114000
@<TRIPOS>BOND
     1     1     2 1   
     2     2     3 1   
     3     2     4 1   
     4     2     5 1   
     5     5     6 ar  
     6     5    10 ar  
     7     6     7 ar  
     8     6    39 1   
     9     7     8 ar  
    10     7    40 1   
    11     8     9 ar  
    12     8    41 1   
    13     9    10 ar  
    14     9    42 1   
    15    10    11 1   
    16    11    12 1   
    17    12    13 1   
    18    12    43 1   
    19    12    44 1   
    20    13    14 2   
    21    13    15 1   
    22    15    16 1   
    23    15    45 1   
    24    16    17 ar  
    25    16    18 ar  
    26    17    21 ar  
    27    17    46 1   
    28    18    19 ar  
    29    18    47 1   
    30    19    20 ar  
    31    19    48 1   
    32    20    21 ar  
    33    20    49 1   
    34    21    22 1   
    35    22    23 2   
    36    22    24 1   
    37    24    25 1   
    38    24    50 1   
    39    25    26 1   
    40    25    51 1   
    41    25    52 1   
    42    26    27 1   
    43    26    53 1   
    44    26    54 1   
    45    27    28 1   
    46    27    55 1   
    47    27    56 1   
    48    28    29 1   
    49    29    30 1   
    50    29    57 1   
    51    29    58 1   
    52    30    31 1   
    53    30    59 1   
    54    30    60 1   
    55    31    32 1   
    56    32    33 1   
    57    32    61 1   
    58    32    62 1   
    59    33    34 1   
    60    33    63 1   
    61    33    64 1   
    62    34    35 1   
    63    35    36 1   
    64    35    65 1   
    65    35    66 1   
    66    36    37 1   
    67    36    67 1   
    68    36    68 1   
    69    37    38 1   
    70    37    69 1   
    71    37    70 1   
    72    38    71 1   
    73    38    72 1   
    74    72    73 1   
    75    72    74 2   
    76    73    75 ar  
    77    73    79 ar  
    78    75    76 ar  
    79    75    95 1   
    80    76    77 ar  
    81    76    96 1   
    82    77    78 ar  
    83    77    80 1   
    84    78    79 ar  
    85    78    97 1   
    86    79    98 1   
    87    80    81 1   
    88    80    99 1   
    89    81    82 1   
    90    81    84 2   
    91    82    83 1   
    92    82   100 1   
    93    82   101 1   
    94    83    85 1   
    95    85    86 ar  
    96    85    90 ar  
    97    86    87 ar  
    98    86   102 1   
    99    87    88 ar  
   100    87   103 1   
   101    88    89 ar  
   102    88   104 1   
   103    89    90 ar  
   104    89   105 1   
   105    90    91 1   
   106    91    92 1   
   107    91    93 1   
   108    91    94 1   
@<TRIPOS>SUBSTRUCTURE
     1 DWK         1 TEMP              0 ****  ****    0 ROOT
