@<TRIPOS>MOLECULE
molecule
  105   108     1     0     0
SMALL
bcc


@<TRIPOS>ATOM
      1 OAE          0.0000     0.0000     0.0000 o          1 DWK      -0.888167
      2 PBN          1.6110     0.0000     0.0000 p5         1 DWK       1.034000
      3 OAF          2.1040     0.0000     1.3950 o          1 DWK      -0.888167
      4 OAD          2.1470    -1.3140    -0.7590 o          1 DWK      -0.888167
      5 CBM          2.2150     1.4820    -0.8550 ca         1 DWK      -0.135500
      6 CAN          2.4450     2.6440    -0.1450 ca         1 DWK      -0.053000
      7 CAI          2.9050     3.7730    -0.7960 ca         1 DWK      -0.211000
      8 CAH          3.1360     3.7420    -2.1590 ca         1 DWK      -0.147000
      9 CAM          2.9080     2.5820    -2.8740 ca         1 DWK      -0.278000
     10 CBL          2.4510     1.4460    -2.2220 ca         1 DWK       0.175100
     11 OBG          2.2250     0.3040    -2.9230 os         1 DWK      -0.204900
     12 CAZ          2.4790     0.3450    -4.3290 c3         1 DWK       0.078400
     13 CBH          2.1740    -1.0020    -4.9330 c          1 DWK       0.624100
     14 OAB          1.7790    -1.9080    -4.2290 o          1 DWK      -0.459100
     15 NBC          2.3400    -1.2010    -6.2560 ns         1 DWK      -0.508100
     16 CBJ          2.1510    -2.4750    -6.8010 ca         1 DWK       0.077600
     17 CAO          1.1680    -3.3080    -6.2900 ca         1 DWK      -0.060000
     18 CAK          2.9440    -2.9040    -7.8590 ca         1 DWK      -0.164000
     19 CAJ          2.7610    -4.1610    -8.4010 ca         1 DWK      -0.133000
     20 CAL          1.7890    -5.0010    -7.8970 ca         1 DWK      -0.148000
     21 CBK          0.9840    -4.5780    -6.8380 ca         1 DWK      -0.128600
     22 CBI         -0.0590    -5.4760    -6.2950 c          1 DWK       0.668700
     23 OAC         -0.7590    -5.1050    -5.3730 o          1 DWK      -0.569100
     24 NBB         -0.2320    -6.7030    -6.8230 ns         1 DWK      -0.596900
     25 CAS         -1.2650    -7.5920    -6.2850 c3         1 DWK       0.117000
     26 CAQ         -1.2520    -8.9150    -7.0550 c3         1 DWK      -0.100400
     27 CAU         -2.3300    -9.8430    -6.4930 c3         1 DWK       0.140400
     28 OBE         -2.3180   -11.0770    -7.2130 os         1 DWK      -0.426600
     29 CAW         -3.2930   -12.0220    -6.7640 c3         1 DWK       0.144400
     30 CAY         -3.1890   -13.2980    -7.6000 c3         1 DWK       0.141400
     31 OBF         -1.9250   -13.9210    -7.3650 os         1 DWK      -0.400600
     32 CAX         -1.7250   -15.1290    -8.1020 c3         1 DWK       0.141400
     33 CAV         -0.3460   -15.7030    -7.7740 c3         1 DWK       0.144400
     34 OBD         -0.3060   -16.0900    -6.3980 os         1 DWK      -0.420600
     35 CAT          0.9450   -16.6430    -5.9860 c3         1 DWK       0.141400
     36 CAP          0.8730   -17.0180    -4.5040 c3         1 DWK      -0.100400
     37 CAR          2.2120   -17.6100    -4.0620 c3         1 DWK       0.117000
     38 NBA          2.1430   -17.9690    -2.6430 ns         1 DWK      -0.593900
     39 H3           2.2650     2.6700     0.9230 ha         1 DWK       0.148000
     40 H4           3.0850     4.6840    -0.2380 ha         1 DWK       0.079000
     41 H5           3.4950     4.6290    -2.6680 ha         1 DWK       0.071000
     42 H6           3.0910     2.5580    -3.9410 ha         1 DWK       0.080000
     43 H7           1.8490     1.0970    -4.7880 h1         1 DWK       0.024700
     44 H8           3.5190     0.5910    -4.5020 h1         1 DWK       0.024700
     45 H9           2.5650    -0.4290    -6.8530 hn         1 DWK       0.305500
     46 H10          0.5460    -2.9750    -5.4690 ha         1 DWK       0.214000
     47 H11          3.7090    -2.2500    -8.2590 ha         1 DWK       0.119000
     48 H12          3.3840    -4.4900    -9.2250 ha         1 DWK       0.113000
     49 H13          1.6490    -5.9860    -8.3250 ha         1 DWK       0.109000
     50 H14          0.3250    -6.9970    -7.6010 hn         1 DWK       0.307500
     51 H15         -2.2360    -7.1230    -6.3900 h1         1 DWK       0.055700
     52 H16         -1.0670    -7.7820    -5.2370 h1         1 DWK       0.055700
     53 H17         -0.2810    -9.3840    -6.9500 hc         1 DWK       0.052700
     54 H18         -1.4500    -8.7250    -8.1030 hc         1 DWK       0.052700
     55 H19         -2.1320   -10.0340    -5.4450 h1         1 DWK       0.028700
     56 H20         -3.3010    -9.3740    -6.5970 h1         1 DWK       0.028700
     57 H21         -3.1150   -12.2570    -5.7220 h1         1 DWK       0.034200
     58 H22         -4.2840   -11.5980    -6.8740 h1         1 DWK       0.034200
     59 H23         -3.2790   -13.0490    -8.6510 h1         1 DWK       0.024700
     60 H24         -3.9840   -13.9780    -7.3210 h1         1 DWK       0.024700
     61 H25         -1.7850   -14.9180    -9.1630 h1         1 DWK       0.025200
     62 H26         -2.4890   -15.8470    -7.8320 h1         1 DWK       0.025200
     63 H27         -0.1580   -16.5690    -8.3970 h1         1 DWK       0.031200
     64 H28          0.4120   -14.9520    -7.9600 h1         1 DWK       0.031200
     65 H29          1.1590   -17.5280    -6.5730 h1         1 DWK       0.024200
     66 H30          1.7300   -15.9110    -6.1360 h1         1 DWK       0.024200
     67 H31          0.0880   -17.7490    -4.3550 hc         1 DWK       0.057700
     68 H32          0.6580   -16.1330    -3.9180 hc         1 DWK       0.057700
     69 H33          2.9970   -16.8790    -4.2120 h1         1 DWK       0.048700
     70 H34          2.4270   -18.4950    -4.6480 h1         1 DWK       0.048700
     71 H35          1.2940   -17.8310    -2.1320 hn         1 DWK       0.315500
     72 C1           3.2150   -18.5140    -2.0330 c          1 DWK       0.683700
     73 C2           3.1460   -18.8750    -0.6030 ca         1 DWK      -0.194600
     74 O1           4.2390   -18.7050    -2.6600 o          1 DWK      -0.623100
     75 C3           4.2560   -19.4380     0.0300 ca         1 DWK      -0.068500
     76 C4           4.1880   -19.7740     1.3640 ca         1 DWK      -0.165500
     77 C5           3.0150   -19.5540     2.0800 ca         1 DWK       0.112600
     78 C6           1.9080   -18.9920     1.4520 ca         1 DWK      -0.165500
     79 C7           1.9710   -18.6490     0.1200 ca         1 DWK      -0.068500
     80 N1           2.9500   -19.8960     3.4300 ns         1 DWK      -0.501100
     81 C9           3.6280   -20.9660     3.8870 c          1 DWK       0.629100
     82 C10          3.6500   -21.2700     5.3640 c3         1 DWK       0.075400
     83 O3           4.4290   -22.4450     5.5970 os         1 DWK      -0.214900
     84 O2           4.2210   -21.6860     3.1110 o          1 DWK      -0.476100
     85 C8           4.5510   -22.8590     6.8860 ca         1 DWK       0.173100
     86 C11          3.9340   -22.1490     7.9040 ca         1 DWK      -0.274000
     87 C12          4.0600   -22.5710     9.2140 ca         1 DWK      -0.144000
     88 C13          4.8000   -23.7010     9.5080 ca         1 DWK      -0.211000
     89 C14          5.4160   -24.4110     8.4940 ca         1 DWK      -0.050000
     90 C15          5.2880   -23.9960     7.1830 ca         1 DWK      -0.141500
     91 P1           6.0970   -24.9280     5.8530 p5         1 DWK       1.047000
     92 O6           5.0960   -26.0650     5.3090 o          1 DWK      -0.894500
     93 O4           6.4460   -24.0070     4.7480 o          1 DWK      -0.894500
     94 O5           7.4360   -25.6180     6.4190 o          1 DWK      -0.894500
     95 H36          5.1690   -19.6100    -0.5270 ha         1 DWK       0.133000
     96 H37          5.0490   -20.2110     1.8560 ha         1 DWK       0.157000
     97 H38          0.9970   -18.8200     2.0120 ha         1 DWK       0.157000
     98 H39          1.1090   -18.2120    -0.3690 ha         1 DWK       0.133000
     99 H40          2.4180   -19.3320     4.0640 hn         1 DWK       0.311500
    100 H41          4.0880   -20.4350     5.8970 h1         1 DWK       0.029200
    101 H42          2.6380   -21.4320     5.7140 h1         1 DWK       0.029200
    102 H43          3.3540   -21.2630     7.6740 ha         1 DWK       0.083000
    103 H44          3.5790   -22.0160    10.0100 ha         1 DWK       0.075000
    104 H45          4.9000   -24.0300    10.5360 ha         1 DWK       0.080000
    105 H46          5.9930   -25.2970     8.7270 ha         1 DWK       0.150000
@<TRIPOS>BOND
     1    19    18 ar
     2    19    20 ar
     3    18    16 ar
     4    14    13 2
     5    20    21 ar
     6    13    15 1
     7    13    12 1
     8    16    15 1
     9    16    17 ar
    10    12    11 1
    11    21    17 ar
    12    21    22 1
    13    24    22 1
    14    24    25 1
    15    11    10 1
    16    22    23 2
    17    25    26 1
    18     3     2 1
    19    30    31 1
    20    30    29 1
    21    10     9 ar
    22    10     5 ar
    23     9     8 ar
    24    28    27 1
    25    28    29 1
    26    27    26 1
    27    31    32 1
    28     4     2 1
    29     2     5 1
    30     2     1 1
    31     5     6 ar
    32     8     7 ar
    33    32    33 1
    34    33    34 1
    35     6     7 ar
    36    34    35 1
    37    35    36 1
    38    36    37 1
    39    37    38 1
    40     6    39 1
    41     7    40 1
    42     8    41 1
    43     9    42 1
    44    12    43 1
    45    12    44 1
    46    15    45 1
    47    17    46 1
    48    18    47 1
    49    19    48 1
    50    20    49 1
    51    24    50 1
    52    25    51 1
    53    25    52 1
    54    26    53 1
    55    26    54 1
    56    27    55 1
    57    27    56 1
    58    29    57 1
    59    29    58 1
    60    30    59 1
    61    30    60 1
    62    32    61 1
    63    32    62 1
    64    33    63 1
    65    33    64 1
    66    35    65 1
    67    35    66 1
    68    36    67 1
    69    36    68 1
    70    37    69 1
    71    37    70 1
    72    38    71 1
    73    38    72 1
    74    72    73 1
    75    72    74 2
    76    73    75 ar
    77    75    76 ar
    78    76    77 ar
    79    77    78 ar
    80    78    79 ar
    81    79    73 ar
    82    77    80 1
    83    80    81 1
    84    81    82 1
    85    82    83 1
    86    81    84 2
    87    83    85 1
    88    85    86 ar
    89    86    87 ar
    90    87    88 ar
    91    88    89 ar
    92    89    90 ar
    93    90    85 ar
    94    90    91 1
    95    91    92 1
    96    91    93 1
    97    91    94 1
    98    75    95 1
    99    76    96 1
   100    78    97 1
   101    79    98 1
   102    80    99 1
   103    82   100 1
   104    82   101 1
   105    86   102 1
   106    87   103 1
   107    88   104 1
   108    89   105 1
@<TRIPOS>SUBSTRUCTURE
     1 DWK         1 TEMP              0 ****  ****    0 ROOT
