@<TRIPOS>MOLECULE
DWM
   65    69     1     0     0
SMALL
bcc


@<TRIPOS>ATOM
      1 N1           0.0000     0.0000     0.0000 nc         1 DWM      -0.643800
      2 N3           2.9700    -0.2670     3.3770 n          1 DWM      -0.177800
      3 C4           3.0040     0.4480    -5.8200 ca         1 DWM      -0.088000
      4 C5           2.1800     0.5580    -4.7170 ca         1 DWM      -0.128000
      5 C6           2.5040    -0.1090    -3.5410 ca         1 DWM      -0.096400
      6 C7           2.2050     0.0000    -1.1840 c          1 DWM       0.521600
      7 C8           1.3230     0.0000     0.0000 cd         1 DWM       0.255800
      8 C10         -2.7070    -0.1340     0.3440 ca         1 DWM      -0.129300
      9 C13         -4.2710    -0.3850    -1.9230 ca         1 DWM       0.120900
     10 C15         -2.9830    -1.3880    -0.1700 ca         1 DWM      -0.045500
     11 C17          0.5410    -0.0120     3.5830 c3         1 DWM       0.036600
     12 C20          3.1100     0.0030     1.9330 c3         1 DWM       0.119300
     13 C21          1.7230     0.0000     1.3460 cd         1 DWM      -0.227600
     14 C22          3.7940    -1.1310     4.0010 c          1 DWM       0.661700
     15 C24          5.4200    -3.0360     3.5890 cc         1 DWM      -0.080000
     16 C26          6.2790    -2.3710     1.6460 cd         1 DWM      -0.310300
     17 C25          6.3330    -3.3530     2.5790 cc         1 DWM      -0.194000
     18 C3           4.1470    -0.3300    -5.7570 ca         1 DWM      -0.082000
     19 C11         -3.2130     0.9940    -0.2750 ca         1 DWM      -0.045500
     20 C14         -3.7640    -1.5140    -1.3030 ca         1 DWM      -0.132000
     21 C12         -3.9950     0.8700    -1.4080 ca         1 DWM      -0.132000
     22 C27          3.6550    -0.8840    -3.4800 ca         1 DWM      -0.095000
     23 C2           4.4710    -0.9940    -4.5890 ca         1 DWM      -0.088300
     24 C23          4.8240    -1.8440     3.2380 cd         1 DWM      -0.406900
     25 C16          0.5820    -0.0040     2.0780 cc         1 DWM      -0.326600
     26 C19          1.9090     0.4330     4.1180 c3         1 DWM       0.061000
     27 C18         -0.5390     0.9560     4.0720 c3         1 DWM      -0.012100
     28 C            5.4540    -3.1950    -5.1720 c3         1 DWM      -0.025100
     29 C9          -1.8600     0.0020     1.5830 c3         1 DWM       0.008600
     30 C1           5.7200    -1.8360    -4.5240 c3         1 DWM       0.248400
     31 N4           5.3700    -1.4460     2.0380 na         1 DWM       0.383900
     32 N2          -0.4430    -0.0010     1.2090 na         1 DWM       0.646400
     33 N            1.6720     0.0010    -2.4220 ns         1 DWM      -0.012100
     34 O2           3.6840    -1.3190     5.1980 o          1 DWM      -0.644100
     35 O1           3.4130     0.0010    -1.0430 o          1 DWM      -0.667100
     36 O            6.7760    -1.1740    -5.2220 oh         1 DWM      -0.586800
     37 F           -5.0340    -0.5070    -3.0300 f          1 DWM      -0.124900
     38 H2           1.2840     1.1650    -4.7670 ha         1 DWM       0.105000
     39 H3          -2.5870    -2.2710     0.3150 ha         1 DWM       0.109500
     40 H4           0.3240    -1.0140     3.9340 hc         1 DWM       0.043700
     41 H5           3.5360     0.9910     1.8070 h1         1 DWM       0.048700
     42 H6           3.6770    -0.8030     1.4840 h1         1 DWM       0.048700
     43 H7           5.2190    -3.6180     4.4810 ha         1 DWM       0.135000
     44 H8           6.8700    -2.3300     0.7400 h4         1 DWM       0.143000
     45 H9           6.9680    -4.2300     2.5450 ha         1 DWM       0.126000
     46 H10          4.7900    -0.4170    -6.6250 ha         1 DWM       0.118000
     47 H11         -2.9970     1.9760     0.1280 ha         1 DWM       0.109500
     48 H12         -3.9800    -2.4960    -1.7060 ha         1 DWM       0.123000
     49 H13         -4.3910     1.7540    -1.8920 ha         1 DWM       0.123000
     50 H14          3.9100    -1.4050    -2.5650 ha         1 DWM       0.135000
     51 H15          2.0190     1.5020     3.9820 h1         1 DWM       0.041200
     52 H16          1.9820     0.1870     5.1700 h1         1 DWM       0.041200
     53 H17         -1.4670     0.4170     4.2210 hc         1 DWM       0.011367
     54 H18         -0.2270     1.4030     5.0080 hc         1 DWM       0.011367
     55 H19         -0.6880     1.7340     3.3320 hc         1 DWM       0.011367
     56 H20          6.2670    -3.8720    -4.9370 hc         1 DWM       0.010700
     57 H21          5.3820    -3.0760    -6.2460 hc         1 DWM       0.010700
     58 H22          4.5250    -3.6020    -4.7900 hc         1 DWM       0.010700
     59 H23         -2.0990     0.9330     2.0840 h1         1 DWM       0.045700
     60 H24         -2.0590    -0.8280     2.2500 h1         1 DWM       0.045700
     61 H25          6.0050    -1.9780    -3.4890 h1         1 DWM       0.002700
     62 H26          5.1300    -0.6140     1.5350 hn         1 DWM       0.147700
     63 H27          0.6820     0.0870    -2.5410 hn         1 DWM       0.182500
     64 H28          7.5990    -1.3680    -4.8050 ho         1 DWM       0.389000
     65 H1           2.7530     0.9670    -6.7370 ha         1 DWM       0.103000
@<TRIPOS>BOND
     1     1     7 2   
     2     1    32 1   
     3     2    12 1   
     4     2    14 1   
     5     2    26 1   
     6     3     4 ar  
     7     3    18 ar  
     8     3    65 1   
     9     4     5 ar  
    10     4    38 1   
    11     5    22 ar  
    12     5    33 1   
    13     6     7 1   
    14     6    33 1   
    15     6    35 2   
    16     7    13 1   
    17     8    10 ar  
    18     8    19 ar  
    19     8    29 1   
    20     9    20 ar  
    21     9    21 ar  
    22     9    37 1   
    23    10    20 ar  
    24    10    39 1   
    25    11    25 1   
    26    11    26 1   
    27    11    27 1   
    28    11    40 1   
    29    12    13 1   
    30    12    41 1   
    31    12    42 1   
    32    13    25 2   
    33    14    24 1   
    34    14    34 2   
    35    15    17 1   
    36    15    24 2   
    37    15    43 1   
    38    16    17 2   
    39    16    31 1   
    40    16    44 1   
    41    17    45 1   
    42    18    23 ar  
    43    18    46 1   
    44    19    21 ar  
    45    19    47 1   
    46    20    48 1   
    47    21    49 1   
    48    22    23 ar  
    49    22    50 1   
    50    23    30 1   
    51    24    31 1   
    52    25    32 1   
    53    26    51 1   
    54    26    52 1   
    55    27    53 1   
    56    27    54 1   
    57    27    55 1   
    58    28    30 1   
    59    28    56 1   
    60    28    57 1   
    61    28    58 1   
    62    29    32 1   
    63    29    59 1   
    64    29    60 1   
    65    30    36 1   
    66    30    61 1   
    67    31    62 1   
    68    33    63 1   
    69    36    64 1   
@<TRIPOS>SUBSTRUCTURE
     1 DWM         1 TEMP              0 ****  ****    0 ROOT
