@<TRIPOS>MOLECULE
molecule
   65    69     1     0     0
SMALL
bcc


@<TRIPOS>ATOM
      1 N1           0.0000     0.0000     0.0000 nc         1 DWM      -0.506800
      2 N3           2.9700    -0.2670     3.3770 n          1 DWM      -0.502800
      3 C4           3.0040     0.4480    -5.8200 ca         1 DWM      -0.116000
      4 C5           2.1800     0.5580    -4.7170 ca         1 DWM      -0.156000
      5 C6           2.5040    -0.1090    -3.5410 ca         1 DWM       0.053600
      6 C7           2.2050     0.0000    -1.1840 c          1 DWM       0.616600
      7 C8           1.3230     0.0000     0.0000 cd         1 DWM       0.261800
      8 C10         -2.7070    -0.1340     0.3440 ca         1 DWM      -0.125300
      9 C13         -4.2710    -0.3850    -1.9230 ca         1 DWM       0.148900
     10 C15         -2.9830    -1.3880    -0.1700 ca         1 DWM      -0.073500
     11 C17          0.5410    -0.0120     3.5830 c3         1 DWM      -0.018400
     12 C20          3.1100     0.0030     1.9330 c3         1 DWM       0.167300
     13 C21          1.7230     0.0000     1.3460 cc         1 DWM      -0.238600
     14 C22          3.7940    -1.1310     4.0010 c          1 DWM       0.713700
     15 C24          5.4200    -3.0360     3.5890 cc         1 DWM      -0.116000
     16 C26          6.2790    -2.3710     1.6460 cd         1 DWM      -0.136300
     17 C25          6.3330    -3.3530     2.5790 cc         1 DWM      -0.225000
     18 C3           4.1470    -0.3300    -5.7570 ca         1 DWM      -0.112000
     19 C11         -3.2130     0.9940    -0.2750 ca         1 DWM      -0.073500
     20 C14         -3.7640    -1.5140    -1.3030 ca         1 DWM      -0.170000
     21 C12         -3.9950     0.8700    -1.4080 ca         1 DWM      -0.170000
     22 C27          3.6550    -0.8840    -3.4800 ca         1 DWM      -0.124000
     23 C2           4.4710    -0.9940    -4.5890 ca         1 DWM      -0.073300
     24 C23          4.8240    -1.8440     3.2380 cd         1 DWM      -0.203900
     25 C16          0.5820    -0.0040     2.0780 cd         1 DWM      -0.122600
     26 C19          1.9090     0.4330     4.1180 c3         1 DWM       0.120000
     27 C18         -0.5390     0.9560     4.0720 c3         1 DWM      -0.099100
     28 C            5.4540    -3.1950    -5.1720 c3         1 DWM      -0.114100
     29 C9          -1.8600     0.0020     1.5830 c3         1 DWM       0.111600
     30 C1           5.7200    -1.8360    -4.5240 c3         1 DWM       0.193400
     31 N4           5.3700    -1.4460     2.0380 na         1 DWM      -0.157100
     32 N2          -0.4430    -0.0010     1.2090 na         1 DWM       0.163400
     33 N            1.6720     0.0010    -2.4220 ns         1 DWM      -0.461100
     34 O2           3.6840    -1.3190     5.1980 o          1 DWM      -0.603100
     35 O1           3.4130     0.0010    -1.0430 o          1 DWM      -0.613100
     36 O            6.7760    -1.1740    -5.2220 oh         1 DWM      -0.604800
     37 F           -5.0340    -0.5070    -3.0300 f          1 DWM      -0.135900
     38 H2           1.2840     1.1650    -4.7670 ha         1 DWM       0.130000
     39 H3          -2.5870    -2.2710     0.3150 ha         1 DWM       0.140000
     40 H4           0.3240    -1.0140     3.9340 hc         1 DWM       0.076700
     41 H5           3.5360     0.9910     1.8070 h1         1 DWM       0.079200
     42 H6           3.6770    -0.8030     1.4840 h1         1 DWM       0.079200
     43 H7           5.2190    -3.6180     4.4810 ha         1 DWM       0.164000
     44 H8           6.8700    -2.3300     0.7400 h4         1 DWM       0.167000
     45 H9           6.9680    -4.2300     2.5450 ha         1 DWM       0.150000
     46 H10          4.7900    -0.4170    -6.6250 ha         1 DWM       0.146000
     47 H11         -2.9970     1.9760     0.1280 ha         1 DWM       0.140000
     48 H12         -3.9800    -2.4960    -1.7060 ha         1 DWM       0.150500
     49 H13         -4.3910     1.7540    -1.8920 ha         1 DWM       0.150500
     50 H14          3.9100    -1.4050    -2.5650 ha         1 DWM       0.154000
     51 H15          2.0190     1.5020     3.9820 h1         1 DWM       0.070700
     52 H16          1.9820     0.1870     5.1700 h1         1 DWM       0.070700
     53 H17         -1.4670     0.4170     4.2210 hc         1 DWM       0.042700
     54 H18         -0.2270     1.4030     5.0080 hc         1 DWM       0.042700
     55 H19         -0.6880     1.7340     3.3320 hc         1 DWM       0.042700
     56 H20          6.2670    -3.8720    -4.9370 hc         1 DWM       0.043700
     57 H21          5.3820    -3.0760    -6.2460 hc         1 DWM       0.043700
     58 H22          4.5250    -3.6020    -4.7900 hc         1 DWM       0.043700
     59 H23         -2.0990     0.9330     2.0840 h1         1 DWM       0.072200
     60 H24         -2.0590    -0.8280     2.2500 h1         1 DWM       0.072200
     61 H25          6.0050    -1.9780    -3.4890 h1         1 DWM       0.037700
     62 H26          5.1300    -0.6140     1.5350 hn         1 DWM       0.317700
     63 H27          0.6820     0.0870    -2.5410 hn         1 DWM       0.340500
     64 H28          7.5990    -1.3680    -4.8050 ho         1 DWM       0.403000
     65 H1           2.7530     0.9670    -6.7370 ha         1 DWM       0.133000
@<TRIPOS>BOND
     1    34    14 2
     2    17    16 2
     3    17    15 1
     4    16    31 1
     5    14    24 1
     6    14     2 1
     7    15    24 2
     8    31    24 1
     9    26     2 1
    10    26    11 1
    11     2    12 1
    12    12    13 1
    13    11    25 1
    14    11    27 1
    15    13    25 2
    16    13     7 1
    17    28    30 1
    18    25    32 1
    19    35     6 2
    20     7     6 1
    21     7     1 2
    22     6    33 1
    23    30    23 1
    24    30    36 1
    25    33     5 1
    26    22     5 ar
    27    22    23 ar
    28    32     1 1
    29    32    29 1
    30     5     4 ar
    31    23    18 ar
    32     4     3 ar
    33    18     3 ar
    34    29     8 1
    35     8    10 ar
    36     8    19 ar
    37    10    20 ar
    38    19    21 ar
    39    20     9 ar
    40    21     9 ar
    41     9    37 1
    42     3    65 1
    43     4    38 1
    44    10    39 1
    45    11    40 1
    46    12    41 1
    47    12    42 1
    48    15    43 1
    49    16    44 1
    50    17    45 1
    51    18    46 1
    52    19    47 1
    53    20    48 1
    54    21    49 1
    55    22    50 1
    56    26    51 1
    57    26    52 1
    58    27    53 1
    59    27    54 1
    60    27    55 1
    61    28    56 1
    62    28    57 1
    63    28    58 1
    64    29    59 1
    65    29    60 1
    66    30    61 1
    67    31    62 1
    68    33    63 1
    69    36    64 1
@<TRIPOS>SUBSTRUCTURE
     1 DWM         1 TEMP              0 ****  ****    0 ROOT
