@<TRIPOS>MOLECULE
DWN
   58    60     1     0     0
SMALL
bcc


@<TRIPOS>ATOM
      1 O4           0.0000     0.0000     0.0000 o          1 DWN      -0.576100
      2 C4           1.2070     0.0000     0.0000 c          1 DWN       0.601100
      3 C5           1.9900     0.0000     1.2960 c3         1 DWN       0.120100
      4 C6           2.6560    -1.3630     1.4970 c3         1 DWN      -0.029100
      5 O5           2.9910     1.0200     1.2180 os         1 DWN      -0.371600
      6 C3           1.9910    -0.0060    -1.2970 c3         1 DWN      -0.201500
      7 N3           1.0890     0.2740    -2.4230 nz         1 DWN       0.080400
      8 C2           3.0650     1.0860    -1.2070 c3         1 DWN      -0.083400
      9 C1           3.8600     0.8980     0.0910 c3         1 DWN       0.479900
     10 O1           4.8850     1.8910     0.1710 os         1 DWN      -0.457200
     11 P2           6.2920     1.6410     0.9130 p5         1 DWN       0.932800
     12 O3P          6.0370     1.4230     2.4880 o          1 DWN      -0.647000
     13 O4P          6.9410     0.4370     0.3470 o          1 DWN      -0.647000
     14 OPP          7.2470     2.9190     0.6960 os         1 DWN      -0.489800
     15 P            8.8360     3.1570     0.7990 p5         1 DWN       0.962800
     16 O1P          9.5460     2.6280    -0.5460 o          1 DWN      -0.666500
     17 O2P          9.3720     2.4170     1.9640 o          1 DWN      -0.666500
     18 O5X          9.1320     4.7300     0.9800 os         1 DWN      -0.506200
     19 C5X         10.4420     5.2540     1.2040 c3         1 DWN       0.312400
     20 C4X         10.3670     6.7770     1.3310 c3         1 DWN       0.151100
     21 O4X          9.7060     7.1480     2.5590 os         1 DWN      -0.350600
     22 C3X         11.7860     7.3770     1.4490 c3         1 DWN       0.161100
     23 O3X         12.2300     7.8660     0.1820 oh         1 DWN      -0.587800
     24 C2X         11.6180     8.5420     2.4500 c3         1 DWN      -0.112400
     25 C1X         10.1180     8.5070     2.8180 c3         1 DWN       0.220500
     26 N11          9.9330     8.8370     4.2330 n          1 DWN       0.057000
     27 C21         10.4770     8.0470     5.1780 c          1 DWN       0.582500
     28 O21         11.1170     7.0680     4.8450 o          1 DWN      -0.652500
     29 N31         10.3230     8.3260     6.4850 ns         1 DWN      -0.130500
     30 C61          9.2130     9.9460     4.5830 cc         1 DWN      -0.077400
     31 C51          9.0430    10.2500     5.8870 cd         1 DWN      -0.313400
     32 C5A          8.2530    11.4680     6.2920 c3         1 DWN       0.109100
     33 C41          9.6150     9.4070     6.8710 c          1 DWN       0.630700
     34 O41          9.4760     9.6610     8.0540 o          1 DWN      -0.691500
     35 H1           1.3230     0.2100     2.1230 h1         1 DWN       0.064700
     36 H2           1.9410    -2.0540     1.9260 hc         1 DWN       0.025033
     37 H3           2.9960    -1.7430     0.5410 hc         1 DWN       0.025033
     38 H4           3.5020    -1.2570     2.1650 hc         1 DWN       0.025033
     39 H5           2.4640    -0.9710    -1.4320 hx         1 DWN       0.109700
     40 H6           0.6160     1.1410    -2.2630 hn         1 DWN       0.216800
     41 H7           0.4170    -0.4630    -2.5030 hn         1 DWN       0.216800
     42 H9           3.7340     1.0070    -2.0550 hc         1 DWN       0.043200
     43 H10          2.5900     2.0600    -1.2020 hc         1 DWN       0.043200
     44 H11          4.3090    -0.0870     0.0930 h2         1 DWN       0.016700
     45 H14         10.8480     4.8350     2.1170 h1         1 DWN      -0.006800
     46 H15         11.0830     4.9920     0.3710 h1         1 DWN      -0.006800
     47 H16          9.8490     7.2060     0.4820 h1         1 DWN       0.025700
     48 H17         12.4760     6.6390     1.8410 h1         1 DWN       0.028700
     49 H18         13.1480     7.6810     0.0780 ho         1 DWN       0.383000
     50 H19         11.8700     9.4840     1.9790 hc         1 DWN       0.033200
     51 H20         12.2270     8.3750     3.3300 hc         1 DWN       0.033200
     52 H21          9.5630     9.1930     2.1900 h2         1 DWN       0.022700
     53 H22         10.7350     7.7280     7.1740 hn         1 DWN       0.203500
     54 H23          8.6990    10.5210     3.8220 h4         1 DWN       0.130000
     55 H24          8.1200    12.1140     5.4330 hc         1 DWN       0.002700
     56 H25          8.7870    12.0030     7.0680 hc         1 DWN       0.002700
     57 H26          7.2830    11.1610     6.6660 hc         1 DWN       0.002700
     58 H33          1.6210     0.3420    -3.2680 hn         1 DWN       0.216800
@<TRIPOS>BOND
     1     1     2 2   
     2     2     3 1   
     3     2     6 1   
     4     3     4 1   
     5     3     5 1   
     6     3    35 1   
     7     4    36 1   
     8     4    37 1   
     9     4    38 1   
    10     5     9 1   
    11     6     7 1   
    12     6     8 1   
    13     6    39 1   
    14     7    40 1   
    15     7    41 1   
    16     7    58 1   
    17     8     9 1   
    18     8    42 1   
    19     8    43 1   
    20     9    10 1   
    21     9    44 1   
    22    10    11 1   
    23    11    12 1   
    24    11    13 1   
    25    11    14 1   
    26    14    15 1   
    27    15    16 1   
    28    15    17 1   
    29    15    18 1   
    30    18    19 1   
    31    19    20 1   
    32    19    45 1   
    33    19    46 1   
    34    20    21 1   
    35    20    22 1   
    36    20    47 1   
    37    21    25 1   
    38    22    23 1   
    39    22    24 1   
    40    22    48 1   
    41    23    49 1   
    42    24    25 1   
    43    24    50 1   
    44    24    51 1   
    45    25    26 1   
    46    25    52 1   
    47    26    27 1   
    48    26    30 1   
    49    27    28 2   
    50    27    29 1   
    51    29    33 1   
    52    29    53 1   
    53    30    31 2   
    54    30    54 1   
    55    31    32 1   
    56    31    33 1   
    57    32    55 1   
    58    32    56 1   
    59    32    57 1   
    60    33    34 2   
@<TRIPOS>SUBSTRUCTURE
     1 DWN         1 TEMP              0 ****  ****    0 ROOT
