@<TRIPOS>MOLECULE
molecule
   58    60     1     0     0
SMALL
bcc


@<TRIPOS>ATOM
      1 O4           0.0000     0.0000     0.0000 o          1 DWN      -0.534100
      2 C4           1.2070     0.0000     0.0000 c          1 DWN       0.539100
      3 C5           1.9900     0.0000     1.2960 c3         1 DWN       0.085100
      4 C6           2.6560    -1.3630     1.4970 c3         1 DWN      -0.127100
      5 O5           2.9910     1.0200     1.2180 os         1 DWN      -0.376600
      6 C3           1.9910    -0.0060    -1.2970 c3         1 DWN      -0.022500
      7 N3           1.0890     0.2740    -2.4230 nz         1 DWN      -0.802600
      8 C2           3.0650     1.0860    -1.2070 c3         1 DWN      -0.137400
      9 C1           3.8600     0.8980     0.0910 c3         1 DWN       0.437900
     10 O1           4.8850     1.8910     0.1710 os         1 DWN      -0.545200
     11 P2           6.2920     1.6410     0.9130 p5         1 DWN       1.399800
     12 O3P          6.0370     1.4230     2.4880 o          1 DWN      -0.805000
     13 O4P          6.9410     0.4370     0.3470 o          1 DWN      -0.805000
     14 OPP          7.2470     2.9190     0.6960 os         1 DWN      -0.711800
     15 P            8.8360     3.1570     0.7990 p5         1 DWN       1.436800
     16 O1P          9.5460     2.6280    -0.5460 o          1 DWN      -0.830500
     17 O2P          9.3720     2.4170     1.9640 o          1 DWN      -0.830500
     18 O5X          9.1320     4.7300     0.9800 os         1 DWN      -0.605200
     19 C5X         10.4420     5.2540     1.2040 c3         1 DWN       0.240400
     20 C4X         10.3670     6.7770     1.3310 c3         1 DWN       0.130100
     21 O4X          9.7060     7.1480     2.5590 os         1 DWN      -0.362600
     22 C3X         11.7860     7.3770     1.4490 c3         1 DWN       0.113100
     23 O3X         12.2300     7.8660     0.1820 oh         1 DWN      -0.606800
     24 C2X         11.6180     8.5420     2.4500 c3         1 DWN      -0.151400
     25 C1X         10.1180     8.5070     2.8180 c3         1 DWN       0.309500
     26 N11          9.9330     8.8370     4.2330 n          1 DWN      -0.355000
     27 C21         10.4770     8.0470     5.1780 c          1 DWN       0.804500
     28 O21         11.1170     7.0680     4.8450 o          1 DWN      -0.609500
     29 N31         10.3230     8.3260     6.4850 ns         1 DWN      -0.561500
     30 C61          9.2130     9.9460     4.5830 cc         1 DWN       0.050600
     31 C51          9.0430    10.2500     5.8870 cd         1 DWN      -0.302400
     32 C5A          8.2530    11.4680     6.2920 c3         1 DWN      -0.008900
     33 C41          9.6150     9.4070     6.8710 c          1 DWN       0.715700
     34 O41          9.4760     9.6610     8.0540 o          1 DWN      -0.646500
     35 H1           1.3230     0.2100     2.1230 h1         1 DWN       0.120700
     36 H2           1.9410    -2.0540     1.9260 hc         1 DWN       0.063700
     37 H3           2.9960    -1.7430     0.5410 hc         1 DWN       0.063700
     38 H4           3.5020    -1.2570     2.1650 hc         1 DWN       0.063700
     39 H5           2.4640    -0.9710    -1.4320 hx         1 DWN       0.134700
     40 H6           0.6160     1.1410    -2.2630 hn         1 DWN       0.450133
     41 H7           0.4170    -0.4630    -2.5030 hn         1 DWN       0.450133
     42 H9           3.7340     1.0070    -2.0550 hc         1 DWN       0.082200
     43 H10          2.5900     2.0600    -1.2020 hc         1 DWN       0.082200
     44 H11          4.3090    -0.0870     0.0930 h2         1 DWN       0.064700
     45 H14         10.8480     4.8350     2.1170 h1         1 DWN       0.045700
     46 H15         11.0830     4.9920     0.3710 h1         1 DWN       0.045700
     47 H16          9.8490     7.2060     0.4820 h1         1 DWN       0.065700
     48 H17         12.4760     6.6390     1.8410 h1         1 DWN       0.065700
     49 H18         13.1480     7.6810     0.0780 ho         1 DWN       0.399000
     50 H19         11.8700     9.4840     1.9790 hc         1 DWN       0.062700
     51 H20         12.2270     8.3750     3.3300 hc         1 DWN       0.062700
     52 H21          9.5630     9.1930     2.1900 h2         1 DWN       0.061700
     53 H22         10.7350     7.7280     7.1740 hn         1 DWN       0.361500
     54 H23          8.6990    10.5210     3.8220 h4         1 DWN       0.159000
     55 H24          8.1200    12.1140     5.4330 hc         1 DWN       0.041033
     56 H25          8.7870    12.0030     7.0680 hc         1 DWN       0.041033
     57 H26          7.2830    11.1610     6.6660 hc         1 DWN       0.041033
     58 H33          1.6210     0.3420    -3.2680 hn         1 DWN       0.450133
@<TRIPOS>BOND
     1    34    33 2
     2    33    29 1
     3    33    31 1
     4    32    31 1
     5    29    27 1
     6    31    30 2
     7    27    28 2
     8    27    26 1
     9    30    26 1
    10    26    25 1
    11    17    15 1
    12    21    25 1
    13    21    20 1
    14    25    24 1
    15    19    20 1
    16    19    18 1
    17    16    15 1
    18    15    18 1
    19    15    14 1
    20    20    22 1
    21    24    22 1
    22    13    11 1
    23    14    11 1
    24    22    23 1
    25    11    12 1
    26    11    10 1
    27     4     3 1
    28    10     9 1
    29     3     5 1
    30     3     2 1
    31     5     9 1
    32     1     2 2
    33     9     8 1
    34     2     6 1
    35     8     6 1
    36     6     7 1
    37     3    35 1
    38     4    36 1
    39     4    37 1
    40     4    38 1
    41     6    39 1
    42     7    40 1
    43     7    41 1
    44     8    42 1
    45     8    43 1
    46     9    44 1
    47    19    45 1
    48    19    46 1
    49    20    47 1
    50    22    48 1
    51    23    49 1
    52    24    50 1
    53    24    51 1
    54    25    52 1
    55    29    53 1
    56    30    54 1
    57    32    55 1
    58    32    56 1
    59    32    57 1
    60    58     7 1
@<TRIPOS>SUBSTRUCTURE
     1 DWN         1 TEMP              0 ****  ****    0 ROOT
