@<TRIPOS>MOLECULE
molecule
   48    51     1     0     0
SMALL
bcc


@<TRIPOS>ATOM
      1 C4           0.0000     0.0000     0.0000 c3         1 DWP      -0.110400
      2 C5           1.5290     0.0000     0.0000 c3         1 DWP      -0.032100
      3 C6           2.0640     0.0000     1.4040 ca         1 DWP      -0.383900
      4 C7           3.3960    -0.3420     1.6100 ca         1 DWP       0.474200
      5 C13          8.2000     0.0430     3.7720 ca         1 DWP      -0.115500
      6 C15          7.8230    -1.7330     5.7820 ca         1 DWP      -0.115500
      7 C20         -1.9950     1.2950     0.8040 c3         1 DWP      -0.191700
      8 C22         -2.3280     1.8180    -0.5950 c3         1 DWP      -0.086100
      9 C24         -2.0180     2.0890     3.2820 c3         1 DWP      -0.076600
     10 C25         -2.7210     0.9190     3.8330 c1         1 DWP       0.232700
     11 C14          8.5400    -1.0220     4.8180 ca         1 DWP      -0.099000
     12 C12          6.8520    -0.1130     3.3600 ca         1 DWP      -0.111500
     13 C16          6.4750    -1.3570     5.7590 ca         1 DWP      -0.111500
     14 C11          6.0190    -0.2650     4.7170 ca         1 DWP       0.206600
     15 C18          1.2940     0.3300     2.5010 ca         1 DWP       0.520600
     16 C9           3.1210    -0.0140     3.8680 ca         1 DWP       0.953900
     17 C23         -2.4390     2.3020     1.8450 c          1 DWP       0.559100
     18 C27         -0.5040     1.8470     3.3250 c3         1 DWP      -0.093400
     19 C3          -0.4820     1.1060     0.9400 c3         1 DWP      -0.056700
     20 C2          -0.1560     0.7000     2.3770 c3         1 DWP      -0.161300
     21 C1          -1.0110    -0.5160     2.7370 c3         1 DWP      -0.131100
     22 N26         -3.2460     0.0060     4.2580 n1         1 DWP      -0.353800
     23 N8           3.8870    -0.3400     2.8370 nb         1 DWP      -0.815000
     24 N17          1.8490     0.3160     3.7060 nb         1 DWP      -0.794000
     25 N10          4.0670     0.0560     4.9240 nu         1 DWP      -0.885300
     26 O28         -3.4720     2.9280     1.5200 o          1 DWP      -0.516100
     27 H1          -0.3670    -1.0130    -0.1140 hc         1 DWP       0.065200
     28 H2          -0.0110     0.6920    -0.8340 hc         1 DWP       0.065200
     29 H3           1.8150    -1.0150    -0.2480 hc         1 DWP       0.052700
     30 H4           1.8610     0.7490    -0.7090 hc         1 DWP       0.052700
     31 H5           4.0810    -0.8320     0.9280 h4         1 DWP       0.024100
     32 H7           8.0440    -2.0260     6.8010 ha         1 DWP       0.167000
     33 H8          -2.4970     0.3510     0.9750 hc         1 DWP       0.092700
     34 H9          -2.2010     0.9950    -1.2880 hc         1 DWP       0.060700
     35 H10         -3.3950     1.7600    -0.4180 hc         1 DWP       0.060700
     36 H11         -1.6820     2.6880    -0.6270 hc         1 DWP       0.060700
     37 H12         -2.2600     2.9710     3.8640 hc         1 DWP       0.103700
     38 H13          9.5260    -0.7920     5.2020 ha         1 DWP       0.104000
     39 H14          6.3090     0.5620     2.7100 ha         1 DWP       0.157000
     40 H15          5.6420    -1.6010     6.4070 ha         1 DWP       0.157000
     41 H16          0.1230     2.7310     3.3330 hc         1 DWP       0.086700
     42 H17         -0.2910     1.1980     4.1660 hc         1 DWP       0.086700
     43 H18          0.0240     2.0340     0.7000 hc         1 DWP       0.064700
     44 H19         -1.3200     0.0640     3.5980 hc         1 DWP       0.081033
     45 H20         -0.2840    -1.3190     2.7820 hc         1 DWP       0.081033
     46 H21         -1.4850    -0.5690     1.7650 hc         1 DWP       0.081033
     47 H22          3.9540     0.4110     5.8520 hn         1 DWP       0.417800
     48 H6           8.8030     0.5890     3.0570 ha         1 DWP       0.167000
@<TRIPOS>BOND
     1    22    10 3
     2    10     9 1
     3     5    12 ar
     4     5    11 ar
     5    12    14 ar
     6     9    18 1
     7     9    17 1
     8    11     6 ar
     9    18    20 1
    10    14    25 1
    11    14    13 ar
    12    25    16 1
    13    26    17 2
    14    17     7 1
    15    24    16 ar
    16    24    15 ar
    17    16    23 ar
    18     6    13 ar
    19    20    15 1
    20    20    21 1
    21    20    19 1
    22    15     3 ar
    23     7    19 1
    24     7     8 1
    25    23     4 ar
    26    19     1 1
    27     3     4 ar
    28     3     2 1
    29     1     2 1
    30     1    27 1
    31     1    28 1
    32     2    29 1
    33     2    30 1
    34     4    31 1
    35     5    48 1
    36     6    32 1
    37     7    33 1
    38     8    34 1
    39     8    35 1
    40     8    36 1
    41     9    37 1
    42    11    38 1
    43    12    39 1
    44    13    40 1
    45    18    41 1
    46    18    42 1
    47    19    43 1
    48    21    44 1
    49    21    45 1
    50    21    46 1
    51    25    47 1
@<TRIPOS>SUBSTRUCTURE
     1 DWP         1 TEMP              0 ****  ****    0 ROOT
