@<TRIPOS>MOLECULE
DWS
   57    61     1     0     0
SMALL
bcc


@<TRIPOS>ATOM
      1 C4           0.0000     0.0000     0.0000 ca         1 DWS      -0.103000
      2 C5           1.3800     0.0000     0.0000 ca         1 DWS      -0.124000
      3 C6           2.0760     0.0000     1.1960 ca         1 DWS      -0.232000
      4 C7           1.3930     0.0000     2.4000 ca         1 DWS      -0.112300
      5 C8           2.1580    -0.0000     3.6970 c3         1 DWS      -0.047000
      6 C10          2.1310    -2.4770     3.8550 c3         1 DWS      -0.042400
      7 C13         -0.0630    -1.0480     6.5720 ca         1 DWS       0.447200
      8 C15         -0.2640     1.2070     6.1760 ca         1 DWS       0.690900
      9 C17          1.1820     0.0050     4.8370 ca         1 DWS       0.458600
     10 C20         -1.4810     4.4560     8.0850 ca         1 DWS      -0.108500
     11 C21         -2.5260     4.8600     8.9540 ca         1 DWS      -0.104000
     12 C22         -3.6980     3.9840     9.1340 ca         1 DWS      -0.150000
     13 C24         -2.8470     2.1060     7.5030 ca         1 DWS      -0.108500
     14 C26          3.0520     1.2400     3.7450 c3         1 DWS       0.001600
     15 C34          4.8920     2.3770     2.5840 c1         1 DWS       0.236700
     16 C23         -3.8690     2.6010     8.4120 ca         1 DWS      -0.104000
     17 C36          0.0140    -0.0000     2.4140 ca         1 DWS      -0.046000
     18 C3          -0.6950     0.0000     1.2110 ca         1 DWS      -0.089600
     19 C12          0.8600    -1.1400     5.5360 ca         1 DWS      -0.300900
     20 C19         -1.5450     2.9170     7.2050 ca         1 DWS       0.003600
     21 C29          4.6640    -0.0400     2.3640 c          1 DWS       0.737100
     22 C2          -2.1710     0.0060     1.2190 c          1 DWS       0.981200
     23 C11          1.4710    -2.4800     5.2340 c3         1 DWS       0.016900
     24 C27          3.9240     1.2740     2.4840 c3         1 DWS      -0.184600
     25 C30          3.8870    -1.3210     2.4820 c3         1 DWS      -0.292700
     26 C9           3.0370    -1.2490     3.7530 c3         1 DWS      -0.002700
     27 C32          4.8530    -2.5050     2.5620 c3         1 DWS       0.019900
     28 N35          5.6470     3.2210     2.6780 n1         1 DWS      -0.422800
     29 N14         -0.5990     0.1240     6.8630 nb         1 DWS      -0.580000
     30 N16          0.6080     1.1520     5.1830 nb         1 DWS      -0.675000
     31 N18         -0.1330     2.5960     6.1760 nu         1 DWS      -0.293300
     32 O37         -2.8970     0.3240     0.5010 o          1 DWS      -0.871300
     33 O33          5.5810    -0.0240     2.6430 o          1 DWS      -0.441100
     34 O1          -2.7340    -0.4460     2.3860 o          1 DWS      -0.871300
     35 H1          -0.5420     0.0140    -0.9380 ha         1 DWS       0.107000
     36 H2           1.9220    -0.0070    -0.9380 ha         1 DWS       0.083000
     37 H3           3.1590     0.0110     1.1920 ha         1 DWS       0.142000
     38 H4           2.9940    -3.1300     3.8920 hc         1 DWS       0.034700
     39 H5           1.4020    -2.8220     3.1310 hc         1 DWS       0.034700
     40 H6          -0.3330    -1.9320     7.1370 h4         1 DWS      -0.014900
     41 H9          -4.4350     4.2630     9.8770 ha         1 DWS       0.086000
     42 H10         -3.4160     1.5300     6.7820 ha         1 DWS       0.108000
     43 H11          3.5690     1.2620     4.6960 hc         1 DWS       0.035700
     44 H12          2.4300     2.1220     3.6560 hc         1 DWS       0.035700
     45 H13         -4.7680     2.0560     8.6720 ha         1 DWS       0.099000
     46 H14         -0.5180     0.0010     3.3580 ha         1 DWS       0.144000
     47 H15          0.5000    -2.9490     5.1310 hc         1 DWS       0.028700
     48 H16          2.0770    -3.0980     5.8850 hc         1 DWS       0.028700
     49 H17          3.2940     1.4150     1.6140 hc         1 DWS       0.117700
     50 H18          3.2400    -1.4320     1.6200 hc         1 DWS       0.109700
     51 H19          3.6830    -1.2000     4.6210 hc         1 DWS       0.030700
     52 H20          5.2880    -2.5500     3.5540 hc         1 DWS       0.004700
     53 H21          4.3150    -3.4240     2.3620 hc         1 DWS       0.004700
     54 H22          5.6400    -2.3800     1.8280 hc         1 DWS       0.004700
     55 H23          0.6730     3.0230     6.5900 hn         1 DWS       0.283800
     56 H7          -0.5900     5.0680     8.0100 ha         1 DWS       0.108000
     57 H8          -2.4320     5.7760     9.5260 ha         1 DWS       0.099000
@<TRIPOS>BOND
     1     1     2 ar  
     2     1    18 ar  
     3     1    35 1   
     4     2     3 ar  
     5     2    36 1   
     6     3     4 ar  
     7     3    37 1   
     8     4     5 1   
     9     4    17 ar  
    10     5     9 1   
    11     5    14 1   
    12     5    26 1   
    13     6    23 1   
    14     6    26 1   
    15     6    38 1   
    16     6    39 1   
    17     7    19 ar  
    18     7    29 ar  
    19     7    40 1   
    20     8    29 ar  
    21     8    30 ar  
    22     8    31 1   
    23     9    19 ar  
    24     9    30 ar  
    25    10    11 ar  
    26    10    20 ar  
    27    10    56 1   
    28    11    12 ar  
    29    11    57 1   
    30    12    16 ar  
    31    12    41 1   
    32    13    16 ar  
    33    13    20 ar  
    34    13    42 1   
    35    14    24 1   
    36    14    43 1   
    37    14    44 1   
    38    15    24 1   
    39    15    28 3   
    40    16    45 1   
    41    17    18 ar  
    42    17    46 1   
    43    18    22 1   
    44    19    23 1   
    45    20    31 1   
    46    21    24 1   
    47    21    25 1   
    48    21    33 2   
    49    22    32 1   
    50    22    34 1   
    51    23    47 1   
    52    23    48 1   
    53    24    49 1   
    54    25    26 1   
    55    25    27 1   
    56    25    50 1   
    57    26    51 1   
    58    27    52 1   
    59    27    53 1   
    60    27    54 1   
    61    31    55 1   
@<TRIPOS>SUBSTRUCTURE
     1 DWS         1 TEMP              0 ****  ****    0 ROOT
