@<TRIPOS>MOLECULE
molecule
   57    61     1     0     0
SMALL
bcc


@<TRIPOS>ATOM
      1 C4           0.0000     0.0000     0.0000 ca         1 DWS      -0.124000
      2 C5           1.3800     0.0000     0.0000 ca         1 DWS      -0.157000
      3 C6           2.0760     0.0000     1.1960 ca         1 DWS      -0.200000
      4 C7           1.3930     0.0000     2.4000 ca         1 DWS      -0.110300
      5 C8           2.1580    -0.0000     3.6970 c3         1 DWS      -0.056000
      6 C10          2.1310    -2.4770     3.8550 c3         1 DWS      -0.075400
      7 C13         -0.0630    -1.0480     6.5720 ca         1 DWS       0.471200
      8 C15         -0.2640     1.2070     6.1760 ca         1 DWS       0.835900
      9 C17          1.1820     0.0050     4.8370 ca         1 DWS       0.490600
     10 C20         -1.4810     4.4560     8.0850 ca         1 DWS      -0.135500
     11 C21         -2.5260     4.8600     8.9540 ca         1 DWS      -0.132500
     12 C22         -3.6980     3.9840     9.1340 ca         1 DWS      -0.184000
     13 C24         -2.8470     2.1060     7.5030 ca         1 DWS      -0.135500
     14 C26          3.0520     1.2400     3.7450 c3         1 DWS      -0.043400
     15 C34          4.8920     2.3770     2.5840 c1         1 DWS       0.244700
     16 C23         -3.8690     2.6010     8.4120 ca         1 DWS      -0.132500
     17 C36          0.0140    -0.0000     2.4140 ca         1 DWS      -0.061000
     18 C3          -0.6950     0.0000     1.2110 ca         1 DWS      -0.106600
     19 C12          0.8600    -1.1400     5.5360 ca         1 DWS      -0.306900
     20 C19         -1.5450     2.9170     7.2050 ca         1 DWS       0.061600
     21 C29          4.6640    -0.0400     2.3640 c          1 DWS       0.730100
     22 C2          -2.1710     0.0060     1.2190 c          1 DWS       0.904200
     23 C11          1.4710    -2.4800     5.2340 c3         1 DWS      -0.052100
     24 C27          3.9240     1.2740     2.4840 c3         1 DWS      -0.253600
     25 C30          3.8870    -1.3210     2.4820 c3         1 DWS      -0.294700
     26 C9           3.0370    -1.2490     3.7530 c3         1 DWS      -0.029700
     27 C32          4.8530    -2.5050     2.5620 c3         1 DWS      -0.077100
     28 N35          5.6470     3.2210     2.6780 n1         1 DWS      -0.402800
     29 N14         -0.5990     0.1240     6.8630 nb         1 DWS      -0.714000
     30 N16          0.6080     1.1520     5.1830 nb         1 DWS      -0.745000
     31 N18         -0.1330     2.5960     6.1760 nu         1 DWS      -0.535300
     32 O37         -2.8970     0.3240     0.5010 o          1 DWS      -0.826800
     33 O33          5.5810    -0.0240     2.6430 o          1 DWS      -0.404100
     34 O1          -2.7340    -0.4460     2.3860 o          1 DWS      -0.826800
     35 H1          -0.5420     0.0140    -0.9380 ha         1 DWS       0.132000
     36 H2           1.9220    -0.0070    -0.9380 ha         1 DWS       0.104000
     37 H3           3.1590     0.0110     1.1920 ha         1 DWS       0.125000
     38 H4           2.9940    -3.1300     3.8920 hc         1 DWS       0.057200
     39 H5           1.4020    -2.8220     3.1310 hc         1 DWS       0.057200
     40 H6          -0.3330    -1.9320     7.1370 h4         1 DWS       0.030100
     41 H9          -4.4350     4.2630     9.8770 ha         1 DWS       0.115000
     42 H10         -3.4160     1.5300     6.7820 ha         1 DWS       0.144000
     43 H11          3.5690     1.2620     4.6960 hc         1 DWS       0.065200
     44 H12          2.4300     2.1220     3.6560 hc         1 DWS       0.065200
     45 H13         -4.7680     2.0560     8.6720 ha         1 DWS       0.133500
     46 H14         -0.5180     0.0010     3.3580 ha         1 DWS       0.166000
     47 H15          0.5000    -2.9490     5.1310 hc         1 DWS       0.056700
     48 H16          2.0770    -3.0980     5.8850 hc         1 DWS       0.056700
     49 H17          3.2940     1.4150     1.6140 hc         1 DWS       0.134700
     50 H18          3.2400    -1.4320     1.6200 hc         1 DWS       0.113700
     51 H19          3.6830    -1.2000     4.6210 hc         1 DWS       0.051700
     52 H20          5.2880    -2.5500     3.5540 hc         1 DWS       0.035367
     53 H21          4.3150    -3.4240     2.3620 hc         1 DWS       0.035367
     54 H22          5.6400    -2.3800     1.8280 hc         1 DWS       0.035367
     55 H23          0.6730     3.0230     6.5900 hn         1 DWS       0.393800
     56 H7          -0.5900     5.0680     8.0100 ha         1 DWS       0.144000
     57 H8          -2.4320     5.7760     9.5260 ha         1 DWS       0.133500
@<TRIPOS>BOND
     1    28    15 3
     2    15    24 1
     3    11    10 ar
     4    11    12 ar
     5    10    20 ar
     6    24    14 1
     7    24    21 1
     8    12    16 ar
     9    14     5 1
    10    20    31 1
    11    20    13 ar
    12    31     8 1
    13    33    21 2
    14    21    25 1
    15    30     8 ar
    16    30     9 ar
    17     8    29 ar
    18    16    13 ar
    19     3     2 ar
    20     3     4 ar
    21     5     9 1
    22     5     4 1
    23     5    26 1
    24     9    19 ar
    25    29     7 ar
    26     2     1 ar
    27     4    17 ar
    28    25    26 1
    29    25    27 1
    30    26     6 1
    31    19     7 ar
    32    19    23 1
    33     1    18 ar
    34    17    18 ar
    35    23     6 1
    36    18    22 1
    37    22    34 1
    38    22    32 1
    39     1    35 1
    40     2    36 1
    41     3    37 1
    42     6    38 1
    43     6    39 1
    44     7    40 1
    45    10    56 1
    46    11    57 1
    47    12    41 1
    48    13    42 1
    49    14    43 1
    50    14    44 1
    51    16    45 1
    52    17    46 1
    53    23    47 1
    54    23    48 1
    55    24    49 1
    56    25    50 1
    57    26    51 1
    58    27    52 1
    59    27    53 1
    60    27    54 1
    61    31    55 1
@<TRIPOS>SUBSTRUCTURE
     1 DWS         1 TEMP              0 ****  ****    0 ROOT
