@<TRIPOS>MOLECULE
molecule
   57    61     1     0     0
SMALL
bcc


@<TRIPOS>ATOM
      1 FBI          0.0000     0.0000     0.0000 f          1 DWT      -0.224300
      2 CBH          1.3990     0.0000     0.0000 c3         1 DWT       0.674200
      3 FBJ          1.8640     0.0000     1.3200 f          1 DWT      -0.224300
      4 FBK          1.8650    -1.1420    -0.6590 f          1 DWT      -0.224300
      5 CBF          1.9010     1.2310    -0.7100 ca         1 DWT      -0.162300
      6 CBD          3.2590     1.4450    -0.8410 ca         1 DWT      -0.119000
      7 CBG          1.0030     2.1400    -1.2350 ca         1 DWT      -0.104000
      8 CBE          1.4590     3.2700    -1.8890 ca         1 DWT      -0.115000
      9 CBC          2.8160     3.4940    -2.0180 ca         1 DWT      -0.100000
     10 CBB          3.7220     2.5780    -1.4960 ca         1 DWT       0.061600
     11 NAZ          5.0970     2.7990    -1.6290 ns         1 DWT      -0.475100
     12 CAY          5.5800     4.0570    -1.6300 c          1 DWT       0.676700
     13 OBA          4.8370     4.9940    -1.4120 o          1 DWT      -0.581100
     14 CAV          7.0150     4.2970    -1.8960 ca         1 DWT      -0.137600
     15 CAT          7.5500     5.5750    -1.7390 ca         1 DWT      -0.084000
     16 CAW          7.8380     3.2450    -2.3000 ca         1 DWT      -0.126000
     17 CAU          9.1750     3.4720    -2.5480 ca         1 DWT      -0.114000
     18 CAS          9.7070     4.7400    -2.3980 ca         1 DWT      -0.104300
     19 CAX         11.1690     4.9790    -2.6700 c3         1 DWT      -0.051800
     20 CAR          8.8970     5.7920    -1.9850 ca         1 DWT       0.143600
     21 NAC          9.4390     7.0730    -1.8350 nu         1 DWT      -0.745300
     22 C6           8.7620     8.0250    -1.1040 ca         1 DWT       0.793200
     23 N1           7.6920     7.7090    -0.3880 nb         1 DWT      -0.843000
     24 C5           9.2000     9.4200    -1.0890 ca         1 DWT      -0.477600
     25 CAH         10.2200    10.1430    -1.6640 cc         1 DWT      -0.074100
     26 NAI         10.0960    11.4160    -1.2630 na         1 DWT       0.134800
     27 CAK         10.9870    12.5110    -1.6540 c3         1 DWT       0.053600
     28 NAJ          8.9890    11.5450    -0.4170 nc         1 DWT      -0.257400
     29 C4           8.4150    10.3690    -0.2800 ca         1 DWT       0.402300
     30 N3           7.3490     9.8900     0.3890 nb         1 DWT      -0.753000
     31 C2           7.0270     8.6170     0.3240 cp         1 DWT       0.820500
     32 CAL          5.8440     8.1620     1.0930 cp         1 DWT      -0.276800
     33 CAN          4.9510     9.0900     1.6390 ca         1 DWT      -0.044000
     34 CAP          3.8610     8.6140     2.3480 ca         1 DWT      -0.275300
     35 CAQ          3.6930     7.2490     2.4930 ca         1 DWT       0.436200
     36 NAO          4.5520     6.3980     1.9670 nb         1 DWT      -0.696000
     37 CAM          5.6000     6.8020     1.2790 ca         1 DWT       0.474200
     38 H1           3.9630     0.7290    -0.4330 ha         1 DWT       0.142000
     39 H2          -0.0620     1.9660    -1.1350 ha         1 DWT       0.148000
     40 H3           0.7520     3.9810    -2.2970 ha         1 DWT       0.142000
     41 H4           3.1730     4.3790    -2.5300 ha         1 DWT       0.167000
     42 H5           5.7250     2.0220    -1.6880 hn         1 DWT       0.328500
     43 H6           6.9170     6.3940    -1.4170 ha         1 DWT       0.213000
     44 H7           7.4260     2.2510    -2.4190 ha         1 DWT       0.125000
     45 H8           9.8120     2.6530    -2.8610 ha         1 DWT       0.137000
     46 H9          11.6410     5.3800    -1.7810 hc         1 DWT       0.045367
     47 H10         11.2740     5.6860    -3.4840 hc         1 DWT       0.045367
     48 H11         11.6440     4.0440    -2.9400 hc         1 DWT       0.045367
     49 H12         10.3020     7.3070    -2.2830 hn         1 DWT       0.458800
     50 H13         10.9440     9.7680    -2.3770 h4         1 DWT       0.168000
     51 H14         10.9520    12.6400    -2.7290 h1         1 DWT       0.063367
     52 H15         10.6690    13.4260    -1.1700 h1         1 DWT       0.063367
     53 H16         12.0010    12.2770    -1.3520 h1         1 DWT       0.063367
     54 H17          5.1080    10.1540     1.5100 ha         1 DWT       0.162000
     55 H18          3.1490     9.3040     2.7840 ha         1 DWT       0.138000
     56 H19          2.8420     6.8730     3.0490 h4         1 DWT       0.020100
     57 H20          6.2840     6.0720     0.8630 h4         1 DWT       0.043100
@<TRIPOS>BOND
     1    35    36 ar
     2    35    34 ar
     3    36    37 ar
     4    34    33 ar
     5    37    32 ar
     6    33    32 ar
     7    32    31 1
     8    23    31 ar
     9    23    22 ar
    10    31    30 ar
    11    21    22 1
    12    21    20 1
    13    22    24 ar
    14    30    29 ar
    15    19    18 1
    16    20    18 ar
    17    20    15 ar
    18    18    17 ar
    19    24    29 ar
    20    24    25 2
    21    29    28 2
    22    15    14 ar
    23    17    16 ar
    24    28    26 1
    25    25    26 1
    26    14    16 ar
    27    14    12 1
    28    13    12 2
    29     1     2 1
    30    26    27 1
    31    12    11 1
    32    11    10 1
    33     6    10 ar
    34     6     5 ar
    35     2     3 1
    36     2     4 1
    37     2     5 1
    38    10     9 ar
    39     5     7 ar
    40     9     8 ar
    41     7     8 ar
    42     6    38 1
    43     7    39 1
    44     8    40 1
    45     9    41 1
    46    11    42 1
    47    15    43 1
    48    16    44 1
    49    17    45 1
    50    19    46 1
    51    19    47 1
    52    19    48 1
    53    21    49 1
    54    25    50 1
    55    27    51 1
    56    27    52 1
    57    27    53 1
    58    33    54 1
    59    34    55 1
    60    35    56 1
    61    37    57 1
@<TRIPOS>SUBSTRUCTURE
     1 DWT         1 TEMP              0 ****  ****    0 ROOT
