@<TRIPOS>MOLECULE
DWV
   37    39     1     0     0
SMALL
bcc


@<TRIPOS>ATOM
      1 CAK          0.0000     0.0000     0.0000 c3         1 DWV       0.152300
      2 CAI          1.5320     0.0000     0.0000 c3         1 DWV       0.138300
      3 NAU          2.0190     0.0000     1.3860 n3         1 DWV      -0.547600
      4 CAA          3.4780    -0.1730     1.4310 c3         1 DWV       0.190100
      5 CAJ          1.6110     1.2200     2.0950 c3         1 DWV       0.138300
      6 CAL          0.0820     1.2690     2.1810 c3         1 DWV       0.152300
      7 NAV         -0.4680     1.1250     0.8250 nh         1 DWV      -0.323600
      8 CAR         -1.3900     2.0140     0.3420 cc         1 DWV       0.583100
      9 SAN         -2.1520     1.9780    -1.2580 ss         1 DWV      -0.320800
     10 NAM         -1.8820     3.0520     0.9790 nd         1 DWV      -0.703100
     11 CAS         -2.7680     3.8310     0.3980 c          1 DWV       0.730700
     12 OAB         -3.2510     4.8050     0.9510 o          1 DWV      -0.557100
     13 CAT         -3.1310     3.4310    -0.9740 cc         1 DWV      -0.110600
     14 CAE         -4.0080     4.0310    -1.8170 cf         1 DWV       0.079800
     15 CAO         -4.3580     3.3880    -3.0910 ca         1 DWV      -0.084800
     16 CAH         -4.1580     2.0140    -3.2640 ca         1 DWV      -0.098000
     17 CAQ         -4.4890     1.4170    -4.4620 ca         1 DWV      -0.037600
     18 ClD         -4.2420    -0.2870    -4.6800 cl         1 DWV       0.000600
     19 CAP         -5.0190     2.1770    -5.4950 ca         1 DWV      -0.030600
     20 ClC         -5.4340     1.4180    -7.0000 cl         1 DWV       0.001600
     21 CAG         -5.2200     3.5380    -5.3300 ca         1 DWV      -0.093000
     22 CAF         -4.8990     4.1460    -4.1360 ca         1 DWV      -0.061000
     23 H1          -0.3630     0.1180    -1.0140 h1         1 DWV       0.045700
     24 H2          -0.3630    -0.9320     0.4170 h1         1 DWV       0.045700
     25 H3           1.8920     0.8860    -0.5080 h1         1 DWV       0.021200
     26 H4           1.8920    -0.8860    -0.5080 h1         1 DWV       0.021200
     27 H6           3.7470    -1.0970     0.9350 h1         1 DWV       0.004033
     28 H7           3.8060    -0.2080     2.4630 h1         1 DWV       0.004033
     29 H8           3.9560     0.6590     0.9280 h1         1 DWV       0.004033
     30 H9           2.0280     1.2130     3.0950 h1         1 DWV       0.021200
     31 H10          1.9690     2.0880     1.5540 h1         1 DWV       0.021200
     32 H11         -0.2720     0.4570     2.8050 h1         1 DWV       0.045700
     33 H12         -0.2280     2.2190     2.6000 h1         1 DWV       0.045700
     34 H13         -4.5370     4.9210    -1.5010 ha         1 DWV       0.130000
     35 H15         -3.8220     1.4070    -2.4320 ha         1 DWV       0.158000
     36 H16         -5.6360     4.1240    -6.1400 ha         1 DWV       0.120000
     37 H17         -5.0570     5.2100    -4.0100 ha         1 DWV       0.113000
@<TRIPOS>BOND
     1     1     2 1   
     2     1     7 1   
     3     1    23 1   
     4     1    24 1   
     5     2     3 1   
     6     2    25 1   
     7     2    26 1   
     8     3     4 1   
     9     3     5 1   
    10     4    27 1   
    11     4    28 1   
    12     4    29 1   
    13     5     6 1   
    14     5    30 1   
    15     5    31 1   
    16     6     7 1   
    17     6    32 1   
    18     6    33 1   
    19     7     8 1   
    20     8     9 1   
    21     8    10 2   
    22     9    13 1   
    23    10    11 1   
    24    11    12 2   
    25    11    13 1   
    26    13    14 2   
    27    14    15 1   
    28    14    34 1   
    29    15    16 ar  
    30    15    22 ar  
    31    16    17 ar  
    32    16    35 1   
    33    17    18 1   
    34    17    19 ar  
    35    19    20 1   
    36    19    21 ar  
    37    21    22 ar  
    38    21    36 1   
    39    22    37 1   
@<TRIPOS>SUBSTRUCTURE
     1 DWV         1 TEMP              0 ****  ****    0 ROOT
