@<TRIPOS>MOLECULE
molecule
   37    39     1     0     0
SMALL
bcc


@<TRIPOS>ATOM
      1 CAK          0.0000     0.0000     0.0000 c3         1 DWV       0.230800
      2 CAI          1.5320     0.0000     0.0000 c3         1 DWV       0.143300
      3 NAU          2.0190     0.0000     1.3860 n3         1 DWV      -0.734600
      4 CAA          3.4780    -0.1730     1.4310 c3         1 DWV       0.153100
      5 CAJ          1.6110     1.2200     2.0950 c3         1 DWV       0.143300
      6 CAL          0.0820     1.2690     2.1810 c3         1 DWV       0.230800
      7 NAV         -0.4680     1.1250     0.8250 nh         1 DWV      -0.722600
      8 CAR         -1.3900     2.0140     0.3420 cc         1 DWV       0.757100
      9 SAN         -2.1520     1.9780    -1.2580 ss         1 DWV      -0.271800
     10 NAM         -1.8820     3.0520     0.9790 nd         1 DWV      -0.794100
     11 CAS         -2.7680     3.8310     0.3980 c          1 DWV       0.729700
     12 OAB         -3.2510     4.8050     0.9510 o          1 DWV      -0.523100
     13 CAT         -3.1310     3.4310    -0.9740 cd         1 DWV      -0.112600
     14 CAE         -4.0080     4.0310    -1.8170 ce         1 DWV       0.008800
     15 CAO         -4.3580     3.3880    -3.0910 ca         1 DWV      -0.074800
     16 CAH         -4.1580     2.0140    -3.2640 ca         1 DWV      -0.105000
     17 CAQ         -4.4890     1.4170    -4.4620 ca         1 DWV       0.031400
     18 ClD         -4.2420    -0.2870    -4.6800 cl         1 DWV      -0.081400
     19 CAP         -5.0190     2.1770    -5.4950 ca         1 DWV       0.038400
     20 ClC         -5.4340     1.4180    -7.0000 cl         1 DWV      -0.081400
     21 CAG         -5.2200     3.5380    -5.3300 ca         1 DWV      -0.116000
     22 CAF         -4.8990     4.1460    -4.1360 ca         1 DWV      -0.095000
     23 H1          -0.3630     0.1180    -1.0140 h1         1 DWV       0.073700
     24 H2          -0.3630    -0.9320     0.4170 h1         1 DWV       0.073700
     25 H3           1.8920     0.8860    -0.5080 h1         1 DWV       0.049200
     26 H4           1.8920    -0.8860    -0.5080 h1         1 DWV       0.049200
     27 H6           3.9560     0.6590     0.9280 h1         1 DWV       0.036700
     28 H7           3.7470    -1.0970     0.9350 h1         1 DWV       0.036700
     29 H8           3.8060    -0.2080     2.4630 h1         1 DWV       0.036700
     30 H9           1.9690     2.0880     1.5540 h1         1 DWV       0.049200
     31 H10          2.0280     1.2130     3.0950 h1         1 DWV       0.049200
     32 H11         -0.2720     0.4570     2.8050 h1         1 DWV       0.073700
     33 H12         -0.2280     2.2190     2.6000 h1         1 DWV       0.073700
     34 H13         -4.5370     4.9210    -1.5010 ha         1 DWV       0.171000
     35 H15         -3.8220     1.4070    -2.4320 ha         1 DWV       0.171000
     36 H16         -5.6360     4.1240    -6.1400 ha         1 DWV       0.154000
     37 H17         -5.0570     5.2100    -4.0100 ha         1 DWV       0.147000
@<TRIPOS>BOND
     1    20    19 1
     2    18    17 1
     3    19    17 ar
     4    19    21 ar
     5    17    16 ar
     6    21    22 ar
     7    16    15 ar
     8    22    15 ar
     9    15    14 1
    10    14    13 2
    11     9    13 1
    12     9     8 1
    13    13    11 1
    14     6     5 1
    15     6     7 1
    16     8     7 1
    17     8    10 2
    18     5     3 1
    19    11    10 1
    20    11    12 2
    21     7     1 1
    22     3     4 1
    23     3     2 1
    24     1     2 1
    25     1    23 1
    26     1    24 1
    27     2    25 1
    28     2    26 1
    29     4    27 1
    30     4    28 1
    31     4    29 1
    32     5    30 1
    33     5    31 1
    34     6    32 1
    35     6    33 1
    36    14    34 1
    37    16    35 1
    38    21    36 1
    39    22    37 1
@<TRIPOS>SUBSTRUCTURE
     1 DWV         1 TEMP              0 ****  ****    0 ROOT
