@<TRIPOS>MOLECULE
DWZ
   53    54     1     0     0
SMALL
bcc


@<TRIPOS>ATOM
      1 CBE         2.5660   -0.7510    1.3270 c3        1 DWZ      0.076800
      2 NBC         3.2130   -0.7860    0.0430 n         1 DWZ     -0.473800
      3 CBD         4.0890   -1.8920   -0.2120 c3        1 DWZ      0.076800
      4 C           2.8130    0.0770   -0.9650 c         1 DWZ      0.648100
      5 O           1.9710    0.9700   -0.7380 o         1 DWZ     -0.608100
      6 CA          3.4600   -0.0580   -2.3530 c3        1 DWZ      0.101500
      7 CB          4.8320    0.6590   -2.3550 c3        1 DWZ     -0.101400
      8 N           2.6340    0.4810   -3.4380 n3        1 DWZ     -0.785200
      9 CD          3.4850    1.2970   -4.2970 c3        1 DWZ      0.163800
     10 CG          4.8710    1.4670   -3.6450 c3        1 DWZ     -0.018600
     11 SAK         5.0960    3.2160   -3.4500 ss        1 DWZ     -0.254200
     12 CAI         6.6580    3.3470   -2.6330 c3        1 DWZ     -0.094900
     13 CAH         7.7580    3.9140   -3.5580 c3        1 DWZ     -0.079700
     14 CAS         8.7860    2.8710   -3.9000 c3        1 DWZ     -0.100100
     15 CAL         6.6000    4.3690   -1.5130 ce        1 DWZ      0.408300
     16 CAM         5.6060    4.2320   -0.4230 c         1 DWZ      0.575800
     17 OAT         4.8670    5.0880    0.0570 o         1 DWZ     -0.499000
     18 OAU         5.5360    2.9700    0.0900 oh        1 DWZ     -0.605100
     19 NAJ         7.4630    5.3370   -1.5850 n2        1 DWZ     -0.517900
     20 CAD         8.2750    5.1890   -2.8020 c3        1 DWZ      0.099500
     21 CAB         9.7840    5.2380   -2.5380 c3        1 DWZ     -0.207700
     22 CAE        10.3310    6.6720   -2.4000 c3        1 DWZ      0.147100
     23 CAF        10.0750    7.5160   -3.6340 c3        1 DWZ     -0.130100
     24 OAG         9.8740    7.3140   -1.2260 oh        1 DWZ     -0.594800
     25 CAA        10.1710    4.4800   -1.2870 c         1 DWZ      0.576900
     26 OAC        10.6890    3.3640   -1.3220 o         1 DWZ     -0.532100
     27 HBE         1.8820    0.1370    1.3950 h1        1 DWZ      0.044867
     28 HBEA        1.9660   -1.6870    1.4890 h1        1 DWZ      0.044867
     29 HBEB        3.3440   -0.6770    2.1350 h1        1 DWZ      0.044867
     30 HBD         4.4230   -2.3410    0.7610 h1        1 DWZ      0.044867
     31 HBDA        4.9990   -1.5460   -0.7740 h1        1 DWZ      0.044867
     32 HBDB        3.5740   -2.6890   -0.8150 h1        1 DWZ      0.044867
     33 HA          3.6010   -1.1520   -2.5960 h1        1 DWZ      0.079700
     34 HB          5.6590   -0.0920   -2.3280 hc        1 DWZ      0.070200
     35 HBA         4.9360    1.3230   -1.4580 hc        1 DWZ      0.070200
     36 HN          1.8730    1.0250   -3.0650 hn        1 DWZ      0.384800
     37 HD          3.0200    2.3000   -4.5130 h1        1 DWZ      0.065200
     38 HDA         3.5970    0.7510   -5.2740 h1        1 DWZ      0.065200
     39 HG          5.6720    1.0760   -4.3200 h1        1 DWZ      0.077700
     40 HAI         6.9510    2.3530   -2.2060 h1        1 DWZ      0.110700
     41 HAH         7.2760    4.2660   -4.5130 hc        1 DWZ      0.078700
     42 HAS         9.3740    2.5600   -3.0010 hc        1 DWZ      0.050033
     43 HASA        9.4940    3.2570   -4.6740 hc        1 DWZ      0.050033
     44 HASB        8.2770    1.9680   -4.3200 hc        1 DWZ      0.050033
     45 HAD         8.0220    6.0830   -3.4480 h1        1 DWZ      0.086700
     46 HAB        10.2970    4.7790   -3.4290 hc        1 DWZ      0.087700
     47 HAE        11.4470    6.5900   -2.2320 h1        1 DWZ      0.076700
     48 HAF         9.0200    7.8820   -3.6620 hc        1 DWZ      0.047700
     49 HAFA       10.7440    8.4110   -3.6150 hc        1 DWZ      0.047700
     50 HAFB       10.2820    6.9300   -4.5590 hc        1 DWZ      0.047700
     51 HOAG        8.9240    7.4610   -1.3130 ho        1 DWZ      0.417000
     52 HAA         9.9780    5.0210   -0.3340 h4        1 DWZ      0.035200
     53 HBC1        4.8400    2.9420    0.7690 ho        1 DWZ      0.457000
@<TRIPOS>BOND
     1    1    2 1
     2    1   27 1
     3    1   28 1
     4    1   29 1
     5    2    3 1
     6    2    4 1
     7    3   30 1
     8    3   31 1
     9    3   32 1
    10    4    5 2
    11    4    6 1
    12    6    7 1
    13    6    8 1
    14    6   33 1
    15    7   10 1
    16    7   34 1
    17    7   35 1
    18    8    9 1
    19    8   36 1
    20    9   10 1
    21    9   37 1
    22    9   38 1
    23   10   11 1
    24   10   39 1
    25   11   12 1
    26   12   13 1
    27   12   15 1
    28   12   40 1
    29   13   14 1
    30   13   20 1
    31   13   41 1
    32   14   42 1
    33   14   43 1
    34   14   44 1
    35   15   16 1
    36   15   19 2
    37   16   17 2
    38   16   18 1
    39   18   53 1
    40   19   20 1
    41   20   21 1
    42   20   45 1
    43   21   22 1
    44   21   25 1
    45   21   46 1
    46   22   23 1
    47   22   24 1
    48   22   47 1
    49   23   48 1
    50   23   49 1
    51   23   50 1
    52   24   51 1
    53   25   26 2
    54   25   52 1
@<TRIPOS>SUBSTRUCTURE
     1 DWZ         1 TEMP              0 ****  ****    0 ROOT
