@<TRIPOS>MOLECULE
molecule
   36    37     1     0     0
SMALL
bcc


@<TRIPOS>ATOM
      1 C5           0.0000     0.0000     0.0000 ca         1 DX1       0.285300
      2 N7           2.0670     0.0000     1.1320 nb         1 DX1      -0.641000
      3 C2          -0.7000     0.0020     3.5780 ca         1 DX1       0.715900
      4 N1           0.0460     0.0020     4.6730 nb         1 DX1      -0.850000
      5 C6           1.3930     0.0000     0.0000 ca         1 DX1       0.368300
      6 C10          1.3730     0.0020     4.6050 ca         1 DX1       1.001900
      7 N12         -2.0750     0.0030     3.6520 nv         1 DX1      -0.967500
      8 N9           2.0430     0.0010     3.4700 nb         1 DX1      -0.774000
      9 C8           1.4060     0.0010     2.2910 ca         1 DX1       0.635000
     10 C16          2.1380    -0.0010    -1.3100 c3         1 DX1      -0.129000
     11 C17          3.3520     0.9240    -1.2070 c3         1 DX1      -0.083100
     12 C18          2.6060    -1.4230    -1.6290 c3         1 DX1      -0.083100
     13 N4          -0.6720     0.0010     1.1330 nb         1 DX1      -0.626000
     14 C3          -0.0110     0.0010     2.2850 ca         1 DX1       0.067000
     15 C13         -0.7460     0.0070    -1.3100 c3         1 DX1      -0.122000
     16 C14         -1.7840    -1.1170    -1.3100 c3         1 DX1      -0.081600
     17 C15         -1.4520     1.3530    -1.4880 c3         1 DX1      -0.081600
     18 HN11         2.3330    -0.8640     6.2240 hn         1 DX1       0.446800
     19 HN1A         2.3640     0.8690     6.2050 hn         1 DX1       0.446800
     20 HN12        -2.5280    -0.0100     4.5440 hn         1 DX1       0.455300
     21 HN1B        -2.6210     0.0280     2.8130 hn         1 DX1       0.455300
     22 H16          1.4830     0.3490    -2.0980 hc         1 DX1       0.062700
     23 H17          3.8050     1.0360    -2.1840 hc         1 DX1       0.042867
     24 H17A         4.0740     0.4970    -0.5210 hc         1 DX1       0.042867
     25 H17B         3.0370     1.8940    -0.8420 hc         1 DX1       0.042867
     26 H18          2.9340    -1.4720    -2.6600 hc         1 DX1       0.042867
     27 H18A         1.7870    -2.1150    -1.4770 hc         1 DX1       0.042867
     28 H18B         3.4290    -1.6880    -0.9750 hc         1 DX1       0.042867
     29 H13         -0.0480    -0.1460    -2.1240 hc         1 DX1       0.064700
     30 H14         -2.6010    -0.8540    -0.6490 hc         1 DX1       0.039367
     31 H14A        -2.1630    -1.2580    -2.3150 hc         1 DX1       0.039367
     32 H14B        -1.3230    -2.0350    -0.9670 hc         1 DX1       0.039367
     33 H15         -1.8050     1.4430    -2.5080 hc         1 DX1       0.039367
     34 H15A        -2.2940     1.4120    -0.8080 hc         1 DX1       0.039367
     35 H15B        -0.7580     2.1560    -1.2730 hc         1 DX1       0.039367
     36 N11          2.0890     0.0020     5.7870 nv         1 DX1      -1.060500
@<TRIPOS>BOND
     1     1     5 ar
     2     1    13 ar
     3     1    15 1
     4     2     5 ar
     5     2     9 ar
     6     3     4 ar
     7     3     7 1
     8     3    14 ar
     9     4     6 ar
    10     5    10 1
    11    36     6 1
    12     6     8 ar
    13     8     9 ar
    14     9    14 ar
    15    10    11 1
    16    10    12 1
    17    13    14 ar
    18    15    16 1
    19    15    17 1
    20    36    18 1
    21    36    19 1
    22     7    20 1
    23     7    21 1
    24    10    22 1
    25    11    23 1
    26    11    24 1
    27    11    25 1
    28    12    26 1
    29    12    27 1
    30    12    28 1
    31    15    29 1
    32    16    30 1
    33    16    31 1
    34    16    32 1
    35    17    33 1
    36    17    34 1
    37    17    35 1
@<TRIPOS>SUBSTRUCTURE
     1 DX1         1 TEMP              0 ****  ****    0 ROOT
