@<TRIPOS>MOLECULE
molecule
   30    32     1     0     0
SMALL
bcc


@<TRIPOS>ATOM
      1 C4           0.0000     0.0000     0.0000 ca         1 DX2       0.760900
      2 C6          -2.5910    -0.0020     2.5080 cp         1 DX2       0.279500
      3 C7          -1.8160    -0.0030     3.6900 ca         1 DX2       0.641900
      4 N1           1.4410    -0.0010     2.3230 nb         1 DX2      -0.811000
      5 N3           1.3250     0.0000     0.0000 nb         1 DX2      -0.832000
      6 CAG         -4.7180     0.8340     3.5050 ca         1 DX2      -0.113000
      7 CAE         -6.0960     0.8290     3.5820 ca         1 DX2      -0.131000
      8 CAD         -6.8350    -0.0040     2.7600 ca         1 DX2      -0.122000
      9 CAF         -6.1980    -0.8360     1.8570 ca         1 DX2      -0.131000
     10 CAH         -4.8210    -0.8400     1.7690 ca         1 DX2      -0.113000
     11 CAN         -4.0710    -0.0030     2.5960 cp         1 DX2      -0.136500
     12 N5          -2.0030    -0.0020     1.3240 nb         1 DX2      -0.564000
     13 C4A         -0.6750    -0.0010     1.2490 ca         1 DX2       0.013000
     14 N4          -0.7070     0.0060    -1.1830 nv         1 DX2      -1.072500
     15 C2           2.0180     0.0000     1.1340 ca         1 DX2       0.981900
     16 C8A          0.1050    -0.0010     2.4310 ca         1 DX2       0.690000
     17 N8          -0.4970    -0.0020     3.6240 nb         1 DX2      -0.745000
     18 NAB         -2.4430    -0.0030     4.9230 nv         1 DX2      -0.999500
     19 HN2          3.8560     0.0000     0.1790 hn         1 DX2       0.453300
     20 HN2A         3.9390    -0.0000     1.9100 hn         1 DX2       0.453300
     21 HAG         -4.1410     1.4860     4.1490 ha         1 DX2       0.143000
     22 HAE         -6.6000     1.4780     4.2870 ha         1 DX2       0.132500
     23 HAD         -7.9160    -0.0040     2.8250 ha         1 DX2       0.131000
     24 HAF         -6.7830    -1.4850     1.2160 ha         1 DX2       0.132500
     25 HAH         -4.3240    -1.4920     1.0620 ha         1 DX2       0.143000
     26 HN4         -0.9500     0.8750    -1.6160 hn         1 DX2       0.447800
     27 HN4A        -0.9420    -0.8580    -1.6290 hn         1 DX2       0.447800
     28 HNAB        -3.4020    -0.2780     4.9970 hn         1 DX2       0.449300
     29 HNAA        -1.9210     0.2150     5.7490 hn         1 DX2       0.449300
     30 N2           3.3980     0.0000     1.0680 nv         1 DX2      -0.980500
@<TRIPOS>BOND
     1     1     5 ar
     2     1    13 ar
     3     1    14 1
     4     2     3 ar
     5     2    11 1
     6     2    12 ar
     7     3    17 ar
     8     3    18 1
     9     4    15 ar
    10     4    16 ar
    11    30    15 1
    12     5    15 ar
    13     6     7 ar
    14     6    11 ar
    15     7     8 ar
    16     8     9 ar
    17     9    10 ar
    18    10    11 ar
    19    12    13 ar
    20    13    16 ar
    21    16    17 ar
    22    30    19 1
    23    30    20 1
    24     6    21 1
    25     7    22 1
    26     8    23 1
    27     9    24 1
    28    10    25 1
    29    14    26 1
    30    14    27 1
    31    18    28 1
    32    18    29 1
@<TRIPOS>SUBSTRUCTURE
     1 DX2         1 TEMP              0 ****  ****    0 ROOT
