@<TRIPOS>MOLECULE
DX3
   29    30     1     0     0
SMALL
bcc


@<TRIPOS>ATOM
      1 C4           0.0000     0.0000     0.0000 ca         1 DX3       0.580200
      2 C5           1.4060     0.0000     0.0000 ca         1 DX3      -0.347200
      3 C6           2.0680     0.0000     1.2350 ca         1 DX3       0.614200
      4 N1           1.3370    -0.0050     2.3480 nb         1 DX3      -0.793000
      5 N3          -0.6520    -0.0090     1.1510 nb         1 DX3      -0.731000
      6 NAI         -0.6560     0.0160    -1.2220 nu         1 DX3      -0.509900
      7 CAO          0.0460     0.6480    -2.3520 c3         1 DX3       0.051900
      8 CAB         -0.0990     2.1680    -2.2600 c3         1 DX3       0.004400
      9 CAC         -0.5580     0.1550    -3.6690 c3         1 DX3       0.004400
     10 CAJ          1.5050     0.2760    -2.2960 c2         1 DX3       0.274300
     11 CAA          2.3040     0.2360    -3.5730 c3         1 DX3      -0.016400
     12 NAF          2.0870    -0.0070    -1.1820 ne         1 DX3      -0.420100
     13 C2           0.0130    -0.0110     2.3000 ca         1 DX3       0.763900
     14 NAD         -0.7000    -0.0190     3.4860 nv         1 DX3      -0.491500
     15 NAE          3.4510     0.0050     1.2970 nv         1 DX3      -0.482500
     16 HNAI        -0.9180    -0.9170    -1.4720 hn         1 DX3       0.274800
     17 HAB          0.6190     2.5570    -1.5480 hc         1 DX3       0.014367
     18 HABA         0.0830     2.6080    -3.2330 hc         1 DX3       0.014367
     19 HABB        -1.1010     2.4160    -1.9340 hc         1 DX3       0.014367
     20 HAC         -1.6350     0.2690    -3.6370 hc         1 DX3       0.014367
     21 HACA        -0.1580     0.7360    -4.4910 hc         1 DX3       0.014367
     22 HACB        -0.3100    -0.8900    -3.8110 hc         1 DX3       0.014367
     23 HAA          3.3610     0.2640    -3.3390 hc         1 DX3       0.012367
     24 HAAA         2.0480     1.0920    -4.1860 hc         1 DX3       0.012367
     25 HAAB         2.0780    -0.6750    -4.1130 hc         1 DX3       0.012367
     26 HNAD        -1.7010    -0.0180     3.4680 hn         1 DX3       0.274300
     27 HNAA        -0.2150    -0.0280     4.3610 hn         1 DX3       0.274300
     28 HNAE         3.9120     0.0350     2.1850 hn         1 DX3       0.276800
     29 HNAB         3.9900    -0.0420     0.4550 hn         1 DX3       0.276800
@<TRIPOS>BOND
     1     1     2 ar  
     2     1     5 ar  
     3     1     6 1   
     4     2     3 ar  
     5     2    12 1   
     6     3     4 ar  
     7     3    15 1   
     8     4    13 ar  
     9     5    13 ar  
    10     6     7 1   
    11     6    16 1   
    12     7     8 1   
    13     7     9 1   
    14     7    10 1   
    15     8    17 1   
    16     8    18 1   
    17     8    19 1   
    18     9    20 1   
    19     9    21 1   
    20     9    22 1   
    21    10    11 1   
    22    10    12 2   
    23    11    23 1   
    24    11    24 1   
    25    11    25 1   
    26    13    14 1   
    27    14    26 1   
    28    14    27 1   
    29    15    28 1   
    30    15    29 1   
@<TRIPOS>SUBSTRUCTURE
     1 DX3         1 TEMP              0 ****  ****    0 ROOT
