@<TRIPOS>MOLECULE
molecule
   17    18     1     0     0
SMALL
bcc


@<TRIPOS>ATOM
      1 C4           0.0000     0.0000     0.0000 cc         1 DX4       0.017800
      2 C5           1.4000     0.0000     0.0000 cd         1 DX4       0.372800
      3 C6           2.0760     0.0000     1.2420 cs         1 DX4       0.306900
      4 C8           0.7580    -0.0080    -2.0700 cc         1 DX4       0.510400
      5 N1           1.3390    -0.0010     2.3740 ns         1 DX4      -0.388400
      6 N3          -0.6630    -0.0000     1.1620 nc         1 DX4      -0.546100
      7 C2          -0.0220    -0.0000     2.3100 cd         1 DX4       0.435800
      8 N9          -0.3790    -0.0040    -1.3150 na         1 DX4      -0.269900
      9 N7           1.8020    -0.0000    -1.2940 nd         1 DX4      -0.613000
     10 S6           3.7870    -0.0020     1.3090 s          1 DX4      -0.342400
     11 H8           0.7870    -0.0160    -3.1520 h5         1 DX4       0.109100
     12 HN2         -0.5200    -0.8180     4.0080 hn         1 DX4       0.478800
     13 HN2A        -0.5170     0.8160     4.0090 hn         1 DX4       0.478800
     14 HN9         -1.3180    -0.0080    -1.6610 hn         1 DX4       0.335700
     15 H5           1.7960    -0.0030     3.2650 hn         1 DX4       0.361500
     16 N2          -0.7440    -0.0000     3.4770 nz         1 DX4      -0.726600
     17 H23         -1.7220     0.0010     3.2640 hn         1 DX4       0.478800
@<TRIPOS>BOND
     1     1     2 2
     2     1     6 1
     3     1     8 1
     4     2     3 1
     5     2     9 1
     6     3     5 1
     7     3    10 2
     8     4     8 1
     9     4     9 2
    10     4    11 1
    11     5     7 1
    12     5    15 1
    13    16     7 1
    14    16    12 1
    15    16    13 1
    16     6     7 2
    17     8    14 1
    18    17    16 1
@<TRIPOS>SUBSTRUCTURE
     1 DX4         1 TEMP              0 ****  ****    0 ROOT
