@<TRIPOS>MOLECULE
DX5
   25    24     1     0     0
SMALL
bcc


@<TRIPOS>ATOM
      1 C1         -0.1220   -0.0650    0.3390 c3        1 DX5      0.113400
      2 C2          1.3910    0.0540    0.1290 c3        1 DX5      0.110100
      3 C3          2.1200    0.0650    1.4860 c3        1 DX5      0.110100
      4 C4          3.6250    0.3530    1.2960 c3        1 DX5      0.096100
      5 C5          4.2580    0.7970    2.6430 c3        1 DX5      0.202400
      6 O1         -0.8170   -0.2420   -0.8850 oh        1 DX5     -0.643800
      7 O2          1.7930   -1.0240   -0.7020 oh        1 DX5     -0.650800
      8 O3          1.8730   -1.1850    2.0910 oh        1 DX5     -0.671800
      9 O4          4.2310   -0.7890    0.7370 oh        1 DX5     -0.668800
     10 O5          5.4710    0.2020    2.8660 os        1 DX5     -0.562200
     11 P           5.4010   -1.0620    4.0650 p5        1 DX5      1.326900
     12 O1P         4.4110   -1.9150    3.2870 o         1 DX5     -0.920500
     13 O2P         6.8050   -1.5700    4.1550 o         1 DX5     -0.920500
     14 O3P         4.8240   -0.3590    5.2560 o         1 DX5     -0.920500
     15 H11        -0.5340    0.8800    0.7800 h1        1 DX5      0.043200
     16 H12        -0.3390   -0.9320    1.0190 h1        1 DX5      0.043200
     17 H2          1.6200    0.9970   -0.4420 h1        1 DX5      0.029700
     18 H3          1.6580    0.8690    2.1270 h1        1 DX5      0.016700
     19 H4          3.7410    1.1660    0.5260 h1        1 DX5      0.008700
     20 H51         4.3900    1.9180    2.5830 h1        1 DX5     -0.004800
     21 H52         3.5420    0.5650    3.4840 h1        1 DX5     -0.004800
     22 HO1        -0.3040   -0.8780   -1.4010 ho        1 DX5      0.413000
     23 HO2         2.4430   -1.5440   -0.1990 ho        1 DX5      0.458000
     24 HO3         2.7010   -1.4960    2.5340 ho        1 DX5      0.508000
     25 HO4         4.6350   -1.2970    1.4860 ho        1 DX5      0.489000
@<TRIPOS>BOND
     1    1    2 1   
     2    1    6 1   
     3    1   15 1   
     4    1   16 1   
     5    2    3 1   
     6    2    7 1   
     7    2   17 1   
     8    3    4 1   
     9    3    8 1   
    10    3   18 1   
    11    4    5 1   
    12    4    9 1   
    13    4   19 1   
    14    5   10 1   
    15    5   20 1   
    16    5   21 1   
    17    6   22 1   
    18    7   23 1   
    19    8   24 1   
    20    9   25 1   
    21   10   11 1   
    22   11   12 1   
    23   11   13 1   
    24   11   14 1   
@<TRIPOS>SUBSTRUCTURE
     1 DX5         1 TEMP              0 ****  ****    0 ROOT
