@<TRIPOS>MOLECULE
molecule
   25    24     1     0     0
SMALL
bcc


@<TRIPOS>ATOM
      1 C1           0.0000     0.0000     0.0000 c3         1 DX5       0.098400
      2 C2           1.5300     0.0000     0.0000 c3         1 DX5       0.145100
      3 C3           2.0400     0.0000     1.4430 c3         1 DX5       0.155100
      4 C4           3.5650    -0.1260     1.4450 c3         1 DX5       0.137100
      5 C5           4.0640    -0.2510     2.8850 c3         1 DX5       0.138400
      6 O1          -0.4750     0.1180    -1.3430 oh         1 DX5      -0.626800
      7 O2           2.0070    -1.1660    -0.6730 oh         1 DX5      -0.543800
      8 O3           1.4700    -1.1040     2.1490 oh         1 DX5      -0.571800
      9 O4           3.9480    -1.2870     0.7060 oh         1 DX5      -0.583800
     10 O5           5.4920    -0.2520     2.8960 os         1 DX5      -0.545200
     11 P            5.9470    -0.3850     4.4350 p5         1 DX5       1.157900
     12 O1P          5.4830    -1.8160     5.0090 o          1 DX5      -0.912167
     13 O2P          7.5490    -0.2610     4.5360 o          1 DX5      -0.912167
     14 O3P          5.3180     0.6920     5.2310 o          1 DX5      -0.912167
     15 H11         -0.3610     0.8370     0.5860 h1         1 DX5       0.029700
     16 H12         -0.3610    -0.9260     0.4310 h1         1 DX5       0.029700
     17 H2           1.8910     0.8850    -0.5110 h1         1 DX5       0.027700
     18 H3           1.7530     0.9260     1.9270 h1         1 DX5       0.032700
     19 H4           4.0010     0.7540     0.9870 h1         1 DX5       0.014700
     20 H51          3.6990     0.5870     3.4680 h1         1 DX5       0.049700
     21 H52          3.6990    -1.1760     3.3150 h1         1 DX5       0.049700
     22 HO1         -1.4080     0.2510    -1.3350 ho         1 DX5       0.385000
     23 HO2          2.0290    -1.0060    -1.6020 ho         1 DX5       0.376000
     24 HO3          0.9900    -0.7850     2.8960 ho         1 DX5       0.386000
     25 HO4          4.8080    -1.1580     0.3410 ho         1 DX5       0.396000
@<TRIPOS>BOND
     1     1     2 1
     2     1     6 1
     3     1    15 1
     4     1    16 1
     5     2     3 1
     6     2     7 1
     7     2    17 1
     8     3     4 1
     9     3     8 1
    10     3    18 1
    11     4     5 1
    12     4     9 1
    13     4    19 1
    14     5    10 1
    15     5    20 1
    16     5    21 1
    17     6    22 1
    18     7    23 1
    19     8    24 1
    20     9    25 1
    21    10    11 1
    22    11    12 1
    23    11    13 1
    24    11    14 1
@<TRIPOS>SUBSTRUCTURE
     1 DX5         1 TEMP              0 ****  ****    0 ROOT
