@<TRIPOS>MOLECULE
molecule
   34    36     1     0     0
SMALL
bcc


@<TRIPOS>ATOM
      1 CAF          0.0000     0.0000     0.0000 ca         1 DX6      -0.123000
      2 CAD          1.3830     0.0000     0.0000 ca         1 DX6      -0.122000
      3 CAC          2.0740     0.0000     1.1970 ca         1 DX6      -0.119000
      4 CAE          1.3830     0.0010     2.3950 ca         1 DX6      -0.122000
      5 CAG          0.0000     0.0020     2.3950 ca         1 DX6      -0.123000
      6 CAN         -0.6910     0.0010     1.1970 ca         1 DX6      -0.098300
      7 CAI         -2.1980     0.0010     1.1970 c3         1 DX6      -0.026100
      8 CAJ         -2.7080    -1.4410     1.1970 c3         1 DX6      -0.013100
      9 CAP         -4.2160    -1.4400     1.1970 cc         1 DX6      -0.069300
     10 CAH         -5.0180    -1.5330     2.2700 cd         1 DX6      -0.077300
     11 NAL         -6.3300    -1.4970     1.8710 na         1 DX6      -0.122100
     12 CAR         -6.4030    -1.3790     0.5130 cd         1 DX6       0.134100
     13 NAK         -7.4230    -1.3020    -0.3550 nd         1 DX6      -0.560100
     14 CAS         -5.0890    -1.3310     0.0290 cc         1 DX6      -0.203600
     15 CAQ         -4.8730    -1.2030    -1.3610 c          1 DX6       0.734100
     16 OAB         -3.7440    -1.1620    -1.8190 o          1 DX6      -0.561500
     17 NAM         -5.9540    -1.1280    -2.1710 ns         1 DX6      -0.468400
     18 CAO         -7.2100    -1.1900    -1.6450 cc         1 DX6       0.450800
     19 NAA         -8.2880    -1.1150    -2.4920 nz         1 DX6      -0.727600
     20 HAF         -0.5420    -0.0000    -0.9380 ha         1 DX6       0.129500
     21 HAD          1.9240    -0.0010    -0.9380 ha         1 DX6       0.135500
     22 HAC          3.1570    -0.0000     1.1970 ha         1 DX6       0.137000
     23 HAE          1.9250     0.0020     3.3330 ha         1 DX6       0.135500
     24 HAG         -0.5420     0.0030     3.3330 ha         1 DX6       0.129500
     25 HAI         -2.5590     0.5120     0.3130 hc         1 DX6       0.050200
     26 HAIA        -2.5590     0.5120     2.0820 hc         1 DX6       0.050200
     27 HAJ         -2.3470    -1.9520     0.3130 hc         1 DX6       0.073200
     28 HAJA        -2.3480    -1.9520     2.0820 hc         1 DX6       0.073200
     29 HAH         -4.6800    -1.6230     3.2950 h4         1 DX6       0.206000
     30 HNAL        -7.1180    -1.5500     2.4850 hn         1 DX6       0.324700
     31 HNAM        -5.8310    -1.0260    -3.1590 hn         1 DX6       0.344500
     32 HNAA        -9.1340    -1.1940    -1.9620 hn         1 DX6       0.476467
     33 HNAB        -8.2410    -1.8590    -3.1590 hn         1 DX6       0.476467
     34 HAA3        -8.2760    -0.2360    -2.9710 hn         1 DX6       0.476467
@<TRIPOS>BOND
     1     1     2 ar
     2     1     6 ar
     3     2     3 ar
     4     3     4 ar
     5     4     5 ar
     6     5     6 ar
     7     6     7 1
     8     7     8 1
     9     8     9 1
    10     9    10 2
    11     9    14 1
    12    10    11 1
    13    11    12 1
    14    12    13 1
    15    12    14 2
    16    13    18 2
    17    14    15 1
    18    15    16 2
    19    15    17 1
    20    17    18 1
    21    18    19 1
    22     1    20 1
    23     2    21 1
    24     3    22 1
    25     4    23 1
    26     5    24 1
    27     7    25 1
    28     7    26 1
    29     8    27 1
    30     8    28 1
    31    10    29 1
    32    11    30 1
    33    17    31 1
    34    19    32 1
    35    19    33 1
    36    34    19 1
@<TRIPOS>SUBSTRUCTURE
     1 DX6         1 TEMP              0 ****  ****    0 ROOT
