@<TRIPOS>MOLECULE
DX6
   34    36     1     0     0
SMALL
bcc


@<TRIPOS>ATOM
      1 CAF          0.0000     0.0000     0.0000 ca         1 DX6      -0.096000
      2 CAD          1.3830     0.0000     0.0000 ca         1 DX6      -0.093500
      3 CAC          2.0740     0.0000     1.1970 ca         1 DX6      -0.092000
      4 CAE          1.3830     0.0010     2.3950 ca         1 DX6      -0.093500
      5 CAG          0.0000     0.0020     2.3950 ca         1 DX6      -0.096000
      6 CAN         -0.6910     0.0010     1.1970 ca         1 DX6      -0.108300
      7 CAI         -2.1980     0.0010     1.1970 c3         1 DX6       0.040900
      8 CAJ         -2.7080    -1.4410     1.1970 c3         1 DX6       0.049900
      9 CAP         -4.2160    -1.4400     1.1970 cc         1 DX6      -0.036300
     10 CAH         -5.0180    -1.5330     2.2700 cd         1 DX6      -0.260300
     11 NAL         -6.3300    -1.4970     1.8710 na         1 DX6       0.470900
     12 CAR         -6.4030    -1.3790     0.5130 cd         1 DX6      -0.145900
     13 NAK         -7.4230    -1.3020    -0.3550 nd         1 DX6      -0.348100
     14 CAS         -5.0890    -1.3310     0.0290 cc         1 DX6      -0.208600
     15 CAQ         -4.8730    -1.2030    -1.3610 c          1 DX6       0.646100
     16 OAB         -3.7440    -1.1620    -1.8190 o          1 DX6      -0.601500
     17 NAM         -5.9540    -1.1280    -2.1710 ns         1 DX6      -0.005400
     18 CAO         -7.2100    -1.1900    -1.6450 cc         1 DX6      -0.023200
     19 NAA         -8.2880    -1.1150    -2.4920 nz         1 DX6       0.222400
     20 HAF         -0.5420    -0.0000    -0.9380 ha         1 DX6       0.105500
     21 HAD          1.9240    -0.0010    -0.9380 ha         1 DX6       0.107000
     22 HAC          3.1570    -0.0000     1.1970 ha         1 DX6       0.108000
     23 HAE          1.9250     0.0020     3.3330 ha         1 DX6       0.107000
     24 HAG         -0.5420     0.0030     3.3330 ha         1 DX6       0.105500
     25 HAI         -2.5590     0.5120     0.3130 hc         1 DX6       0.018200
     26 HAIA        -2.5590     0.5120     2.0820 hc         1 DX6       0.018200
     27 HAJ         -2.3470    -1.9520     0.3130 hc         1 DX6       0.039200
     28 HAJA        -2.3480    -1.9520     2.0820 hc         1 DX6       0.039200
     29 HAH         -4.6800    -1.6230     3.2950 h4         1 DX6       0.173000
     30 HNAL        -7.1180    -1.5500     2.4850 hn         1 DX6       0.127700
     31 HNAM        -5.8310    -1.0260    -3.1590 hn         1 DX6       0.186500
     32 HNAA        -9.1340    -1.1940    -1.9620 hn         1 DX6       0.215133
     33 HNAB        -8.2410    -1.8590    -3.1590 hn         1 DX6       0.215133
     34 HAA3        -8.2760    -0.2360    -2.9710 hn         1 DX6       0.215133
@<TRIPOS>BOND
     1     1     2 ar  
     2     1     6 ar  
     3     1    20 1   
     4     2     3 ar  
     5     2    21 1   
     6     3     4 ar  
     7     3    22 1   
     8     4     5 ar  
     9     4    23 1   
    10     5     6 ar  
    11     5    24 1   
    12     6     7 1   
    13     7     8 1   
    14     7    25 1   
    15     7    26 1   
    16     8     9 1   
    17     8    27 1   
    18     8    28 1   
    19     9    10 2   
    20     9    14 1   
    21    10    11 1   
    22    10    29 1   
    23    11    12 1   
    24    11    30 1   
    25    12    13 1   
    26    12    14 2   
    27    13    18 2   
    28    14    15 1   
    29    15    16 2   
    30    15    17 1   
    31    17    18 1   
    32    17    31 1   
    33    18    19 1   
    34    19    32 1   
    35    19    33 1   
    36    19    34 1   
@<TRIPOS>SUBSTRUCTURE
     1 DX6         1 TEMP              0 ****  ****    0 ROOT
