@<TRIPOS>MOLECULE
DX7
   29    31     1     0     0
SMALL
bcc


@<TRIPOS>ATOM
      1 CAH          0.0000     0.0000     0.0000 ca         1 DX7      -0.087500
      2 CAF          1.3800     0.0000     0.0000 ca         1 DX7      -0.090000
      3 CAE          2.0750     0.0000     1.1970 ca         1 DX7      -0.041000
      4 CAG          1.3920     0.0010     2.4010 ca         1 DX7      -0.090000
      5 CAI          0.0140     0.0000     2.4160 ca         1 DX7      -0.087500
      6 CAN         -0.6950     0.0000     1.2120 ca         1 DX7      -0.076000
      7 CAP         -2.1710     0.0010     1.2190 cc         1 DX7      -0.155300
      8 NAL         -2.9720    -0.7880     0.4360 na         1 DX7       0.471900
      9 CAR         -4.2910    -0.5380     0.6930 cc         1 DX7      -0.125900
     10 NAJ         -5.4300    -1.0410     0.1960 nc         1 DX7      -0.359100
     11 CAM         -6.6030    -0.6240     0.6190 cd         1 DX7      -0.046200
     12 NAB         -7.7370    -1.1730     0.0780 nz         1 DX7       0.190400
     13 NAK         -6.7260     0.3350     1.5790 ns         1 DX7       0.015600
     14 CAQ         -5.6230     0.8920     2.1280 c          1 DX7       0.645100
     15 OAC         -5.7180     1.7520     2.9870 o          1 DX7      -0.583500
     16 CAS         -4.3600     0.4520     1.6810 cd         1 DX7      -0.183600
     17 CAO         -2.9730     0.7950     2.0250 cd         1 DX7       0.078000
     18 CAD         -2.5380     1.7570     2.9930 ch         1 DX7       0.221800
     19 NAA         -2.1920     2.5330     3.7460 n1         1 DX7      -0.301800
     20 HAH         -0.3650     0.0550    -1.0180 ha         1 DX7       0.114500
     21 HAF          1.8430     0.0300    -0.9790 ha         1 DX7       0.120500
     22 HAE          3.1450     0.0940     1.3390 ha         1 DX7       0.120000
     23 HAG          1.7430    -0.4490     3.3220 ha         1 DX7       0.120500
     24 HAI         -0.6060     0.1110     3.2980 ha         1 DX7       0.114500
     25 HNAL        -2.4250    -1.3250    -0.2090 hn         1 DX7       0.143700
     26 HNAB        -8.5130    -0.5450     0.1580 hn         1 DX7       0.232467
     27 HNAA        -7.4930    -0.9190    -0.8590 hn         1 DX7       0.232467
     28 HNAK        -7.6840     0.4190     1.8560 hn         1 DX7       0.173500
     29 HAB3        -7.9230    -2.0730     0.4730 hn         1 DX7       0.232467
@<TRIPOS>BOND
     1     1     2 ar  
     2     1     6 ar  
     3     1    20 1   
     4     2     3 ar  
     5     2    21 1   
     6     3     4 ar  
     7     3    22 1   
     8     4     5 ar  
     9     4    23 1   
    10     5     6 ar  
    11     5    24 1   
    12     6     7 1   
    13     7     8 1   
    14     7    17 2   
    15     8     9 1   
    16     8    25 1   
    17     9    10 1   
    18     9    16 2   
    19    10    11 2   
    20    11    12 1   
    21    11    13 1   
    22    12    26 1   
    23    12    27 1   
    24    12    29 1   
    25    13    14 1   
    26    13    28 1   
    27    14    15 2   
    28    14    16 1   
    29    16    17 1   
    30    17    18 1   
    31    18    19 3   
@<TRIPOS>SUBSTRUCTURE
     1 DX7         1 TEMP              0 ****  ****    0 ROOT
