@<TRIPOS>MOLECULE
molecule
   29    31     1     0     0
SMALL
bcc


@<TRIPOS>ATOM
      1 CAH          0.0000     0.0000     0.0000 ca         1 DX7      -0.104500
      2 CAF          1.3800     0.0000     0.0000 ca         1 DX7      -0.121000
      3 CAE          2.0750     0.0000     1.1970 ca         1 DX7      -0.074000
      4 CAG          1.3920     0.0010     2.4010 ca         1 DX7      -0.121000
      5 CAI          0.0140     0.0000     2.4160 ca         1 DX7      -0.104500
      6 CAN         -0.6950     0.0000     1.2120 ca         1 DX7      -0.086000
      7 CAP         -2.1710     0.0010     1.2190 cc         1 DX7       0.054700
      8 NAL         -2.9720    -0.7880     0.4360 na         1 DX7      -0.120100
      9 CAR         -4.2910    -0.5380     0.6930 cc         1 DX7       0.161100
     10 NAJ         -5.4300    -1.0410     0.1960 nc         1 DX7      -0.560100
     11 CAM         -6.6030    -0.6240     0.6190 cd         1 DX7       0.408800
     12 NAB         -7.7370    -1.1730     0.0780 nz         1 DX7      -0.744600
     13 NAK         -6.7260     0.3350     1.5790 ns         1 DX7      -0.453400
     14 CAQ         -5.6230     0.8920     2.1280 c          1 DX7       0.736100
     15 OAC         -5.7180     1.7520     2.9870 o          1 DX7      -0.538500
     16 CAS         -4.3600     0.4520     1.6810 cd         1 DX7      -0.167600
     17 CAO         -2.9730     0.7950     2.0250 cd         1 DX7      -0.006000
     18 CAD         -2.5380     1.7570     2.9930 ch         1 DX7       0.242800
     19 NAA         -2.1920     2.5330     3.7460 n1         1 DX7      -0.292800
     20 HAH         -0.3650     0.0550    -1.0180 ha         1 DX7       0.143500
     21 HAF          1.8430     0.0300    -0.9790 ha         1 DX7       0.153000
     22 HAE          3.1450     0.0940     1.3390 ha         1 DX7       0.155000
     23 HAG          1.7430    -0.4490     3.3220 ha         1 DX7       0.153000
     24 HAI         -0.6060     0.1110     3.2980 ha         1 DX7       0.143500
     25 HNAL        -2.4250    -1.3250    -0.2090 hn         1 DX7       0.338700
     26 HNAB        -8.5130    -0.5450     0.1580 hn         1 DX7       0.491133
     27 HNAA        -7.4930    -0.9190    -0.8590 hn         1 DX7       0.491133
     28 HNAK        -7.6840     0.4190     1.8560 hn         1 DX7       0.334500
     29 HAB3        -7.9230    -2.0730     0.4730 hn         1 DX7       0.491133
@<TRIPOS>BOND
     1     1     2 ar
     2     1     6 ar
     3     2     3 ar
     4     3     4 ar
     5     4     5 ar
     6     5     6 ar
     7     6     7 1
     8     7     8 1
     9     7    17 2
    10     8     9 1
    11     9    10 1
    12     9    16 2
    13    10    11 2
    14    11    12 1
    15    11    13 1
    16    13    14 1
    17    14    15 2
    18    14    16 1
    19    16    17 1
    20    17    18 1
    21    18    19 3
    22     1    20 1
    23     2    21 1
    24     3    22 1
    25     4    23 1
    26     5    24 1
    27     8    25 1
    28    12    26 1
    29    12    27 1
    30    13    28 1
    31    29    12 1
@<TRIPOS>SUBSTRUCTURE
     1 DX7         1 TEMP              0 ****  ****    0 ROOT
