@<TRIPOS>MOLECULE
DX8
   33    35     1     0     0
SMALL
bcc


@<TRIPOS>ATOM
      1 CAA          0.0000     0.0000     0.0000 c3         1 DX8       0.234700
      2 OAM          1.4290     0.0000     0.0000 os         1 DX8      -0.315900
      3 CAO          2.0460     0.0000     1.2110 ca         1 DX8       0.189100
      4 CAG          3.4340    -0.0000     1.2800 ca         1 DX8      -0.181500
      5 CAI          4.0640    -0.0000     2.5060 ca         1 DX8      -0.014000
      6 CAF          1.2870     0.0050     2.3750 ca         1 DX8      -0.181500
      7 CAH          1.9080     0.0040     3.6050 ca         1 DX8      -0.014000
      8 CAP          3.3050    -0.0010     3.6800 ca         1 DX8      -0.140000
      9 CAR          3.9740    -0.0020     4.9930 cc         1 DX8      -0.077300
     10 NAL          5.0380     0.7860     5.3470 na         1 DX8       0.450900
     11 CAT          5.4140     0.5340     6.6370 cc         1 DX8      -0.182900
     12 NAJ          6.3790     1.0380     7.4220 nc         1 DX8      -0.362100
     13 CAN          6.5400     0.6200     8.6570 cd         1 DX8      -0.059200
     14 NAC          7.5420     1.1680     9.4180 nz         1 DX8       0.136400
     15 NAK          5.7440    -0.3390     9.2070 ns         1 DX8       0.013600
     16 CAS          4.7490    -0.8950     8.4790 c          1 DX8       0.648100
     17 OAD          4.0300    -1.7560     8.9570 o          1 DX8      -0.578500
     18 CAU          4.5670    -0.4550     7.1510 cd         1 DX8      -0.180600
     19 CAQ          3.6260    -0.7970     6.0760 cd         1 DX8       0.071000
     20 CAE          2.5660    -1.7590     6.1340 ch         1 DX8       0.226800
     21 NAB          1.7140    -2.5090     6.1900 n1         1 DX8      -0.306800
     22 HAA         -0.0940     0.5900    -0.9040 h1         1 DX8       0.017367
     23 HAAA        -0.3810    -0.9930     0.2070 h1         1 DX8       0.017367
     24 HAAB        -0.1990     0.5520     0.9110 h1         1 DX8       0.017367
     25 HAG          3.9500    -0.2040     0.3500 ha         1 DX8       0.138500
     26 HAI          5.1210     0.2310     2.5590 ha         1 DX8       0.106000
     27 HAF          0.2090     0.0830     2.3050 ha         1 DX8       0.138500
     28 HAH          1.2540     0.2180     4.4410 ha         1 DX8       0.106000
     29 HNAL         5.5160     1.6520     5.1970 hn         1 DX8       0.150700
     30 HNAC         6.8430     1.7820     9.7870 hn         1 DX8       0.254133
     31 HNAA         7.4440     0.4090    10.0630 hn         1 DX8       0.254133
     32 HNAK         6.2340    -0.6450    10.0240 hn         1 DX8       0.170500
     33 HAC3         8.3190     1.4940     8.8770 hn         1 DX8       0.254133
@<TRIPOS>BOND
     1     1     2 1   
     2     1    22 1   
     3     1    23 1   
     4     1    24 1   
     5     2     3 1   
     6     3     4 ar  
     7     3     6 ar  
     8     4     5 ar  
     9     4    25 1   
    10     5     8 ar  
    11     5    26 1   
    12     6     7 ar  
    13     6    27 1   
    14     7     8 ar  
    15     7    28 1   
    16     8     9 1   
    17     9    10 1   
    18     9    19 2   
    19    10    11 1   
    20    10    29 1   
    21    11    12 1   
    22    11    18 2   
    23    12    13 2   
    24    13    14 1   
    25    13    15 1   
    26    14    30 1   
    27    14    31 1   
    28    14    33 1   
    29    15    16 1   
    30    15    32 1   
    31    16    17 2   
    32    16    18 1   
    33    18    19 1   
    34    19    20 1   
    35    20    21 3   
@<TRIPOS>SUBSTRUCTURE
     1 DX8         1 TEMP              0 ****  ****    0 ROOT
