@<TRIPOS>MOLECULE
molecule
   33    35     1     0     0
SMALL
bcc


@<TRIPOS>ATOM
      1 CAA          0.0000     0.0000     0.0000 c3         1 DX8       0.125700
      2 OAM          1.4290     0.0000     0.0000 os         1 DX8      -0.332900
      3 CAO          2.0460     0.0000     1.2110 ca         1 DX8       0.178100
      4 CAG          3.4340    -0.0000     1.2800 ca         1 DX8      -0.198000
      5 CAI          4.0640    -0.0000     2.5060 ca         1 DX8      -0.043000
      6 CAF          1.2870     0.0050     2.3750 ca         1 DX8      -0.198000
      7 CAH          1.9080     0.0040     3.6050 ca         1 DX8      -0.043000
      8 CAP          3.3050    -0.0010     3.6800 ca         1 DX8      -0.138000
      9 CAR          3.9740    -0.0020     4.9930 cc         1 DX8       0.141700
     10 NAL          5.0380     0.7860     5.3470 na         1 DX8      -0.121100
     11 CAT          5.4140     0.5340     6.6370 cc         1 DX8       0.070100
     12 NAJ          6.3790     1.0380     7.4220 nc         1 DX8      -0.555100
     13 CAN          6.5400     0.6200     8.6570 cd         1 DX8       0.350800
     14 NAC          7.5420     1.1680     9.4180 nz         1 DX8      -0.741600
     15 NAK          5.7440    -0.3390     9.2070 ns         1 DX8      -0.449400
     16 CAS          4.7490    -0.8950     8.4790 c          1 DX8       0.738100
     17 OAD          4.0300    -1.7560     8.9570 o          1 DX8      -0.530500
     18 CAU          4.5670    -0.4550     7.1510 cd         1 DX8      -0.160600
     19 CAQ          3.6260    -0.7970     6.0760 cd         1 DX8      -0.014000
     20 CAE          2.5660    -1.7590     6.1340 ch         1 DX8       0.247800
     21 NAB          1.7140    -2.5090     6.1900 n1         1 DX8      -0.293800
     22 HAA         -0.0940     0.5900    -0.9040 h1         1 DX8       0.062033
     23 HAAA        -0.3810    -0.9930     0.2070 h1         1 DX8       0.062033
     24 HAAB        -0.1990     0.5520     0.9110 h1         1 DX8       0.062033
     25 HAG          3.9500    -0.2040     0.3500 ha         1 DX8       0.162500
     26 HAI          5.1210     0.2310     2.5590 ha         1 DX8       0.143000
     27 HAF          0.2090     0.0830     2.3050 ha         1 DX8       0.162500
     28 HAH          1.2540     0.2180     4.4410 ha         1 DX8       0.143000
     29 HNAL         5.5160     1.6520     5.1970 hn         1 DX8       0.343700
     30 HNAC         6.8430     1.7820     9.7870 hn         1 DX8       0.501467
     31 HNAA         7.4440     0.4090    10.0630 hn         1 DX8       0.501467
     32 HNAK         6.2340    -0.6450    10.0240 hn         1 DX8       0.322500
     33 HAC3         8.3190     1.4940     8.8770 hn         1 DX8       0.501467
@<TRIPOS>BOND
     1     1     2 1
     2     2     3 1
     3     3     4 ar
     4     3     6 ar
     5     4     5 ar
     6     5     8 ar
     7     6     7 ar
     8     7     8 ar
     9     8     9 1
    10     9    10 1
    11     9    19 2
    12    10    11 1
    13    11    12 1
    14    11    18 2
    15    12    13 2
    16    13    14 1
    17    13    15 1
    18    15    16 1
    19    16    17 2
    20    16    18 1
    21    18    19 1
    22    19    20 1
    23    20    21 3
    24     1    22 1
    25     1    23 1
    26     1    24 1
    27     4    25 1
    28     5    26 1
    29     6    27 1
    30     7    28 1
    31    10    29 1
    32    14    30 1
    33    14    31 1
    34    15    32 1
    35    33    14 1
@<TRIPOS>SUBSTRUCTURE
     1 DX8         1 TEMP              0 ****  ****    0 ROOT
