@<TRIPOS>MOLECULE
molecule
   61    64     1     0     0
SMALL
bcc


@<TRIPOS>ATOM
      1 C12          0.0000     0.0000     0.0000 ca         1 DX9      -0.116000
      2 C13          1.3610     0.0000     0.0000 ca         1 DX9      -0.028300
      3 C11          2.0780     0.0000     1.1950 ca         1 DX9      -0.060000
      4 C10          1.4390     0.0010     2.3960 ca         1 DX9      -0.137000
      5 C7           0.0350     0.0020     2.4390 ca         1 DX9      -0.023000
      6 C6          -0.6550     0.0030     3.6640 ca         1 DX9      -0.067000
      7 C5          -2.0120     0.0030     3.6790 ca         1 DX9      -0.181000
      8 C4          -2.7470     0.0030     2.4810 ca         1 DX9      -0.230900
      9 C9          -2.0980     0.0020     1.2590 ca         1 DX9       0.017000
     10 C8          -0.6950     0.0010     1.2220 ca         1 DX9      -0.053000
     11 C2          -4.2260     0.0020     2.5270 ce         1 DX9       0.553800
     12 N2          -4.9130     0.0010     1.4200 n2         1 DX9      -0.711100
     13 N1          -4.8780     0.0020     3.7420 nz         1 DX9      -0.800600
     14 C14          2.1030    -0.0010    -1.3120 c3         1 DX9      -0.029100
     15 C22          2.8240     1.4150    -3.2160 c          1 DX9       0.894600
     16 O23          2.8980     2.5480    -3.9310 o          1 DX9      -0.822800
     17 O24          3.2560     0.3840    -3.6710 o          1 DX9      -0.822800
     18 C15          2.2010     1.4300    -1.8430 c3         1 DX9      -0.130400
     19 N28          5.2770     7.5780     3.5760 nh         1 DX9      -0.796600
     20 C27          5.9220     6.7150     2.5710 c3         1 DX9       0.242800
     21 C26          4.8190     5.7210     2.1330 c3         1 DX9       0.126100
     22 C30          4.0740     5.4730     3.4720 c3         1 DX9      -0.123400
     23 C29          4.1450     6.8490     4.1670 c3         1 DX9       0.230800
     24 C31          5.6690     8.8480     3.9080 c2         1 DX9       0.667200
     25 N32          6.6890     9.3840     3.3210 n2         1 DX9      -0.907100
     26 C33          4.9120     9.6200     4.9590 c3         1 DX9      -0.182400
     27 C21          2.5200     3.3710    -0.2950 ca         1 DX9      -0.090500
     28 C20          3.3000     4.1280     0.5580 ca         1 DX9      -0.192500
     29 C17          4.3680     1.8930    -0.6810 ca         1 DX9      -0.090500
     30 C18          5.1510     2.6470     0.1720 ca         1 DX9      -0.192500
     31 C19          4.6190     3.7670     0.7940 ca         1 DX9       0.111100
     32 O25          5.3890     4.5100     1.6320 os         1 DX9      -0.323900
     33 C16          3.0530     2.2550    -0.9140 ca         1 DX9      -0.058300
     34 H12         -0.5450    -0.0000    -0.9360 ha         1 DX9       0.156000
     35 H11          3.1610    -0.0000     1.1670 ha         1 DX9       0.160000
     36 H10          2.0110     0.0010     3.3160 ha         1 DX9       0.140000
     37 H6          -0.1030     0.0020     4.5960 ha         1 DX9       0.145000
     38 H5          -2.5360     0.0030     4.6280 ha         1 DX9       0.086000
     39 H9          -2.6680     0.0020     0.3380 ha         1 DX9       0.167000
     40 H227         6.7540     6.1810     3.0140 h1         1 DX9       0.069200
     41 HN21        -5.9130     0.0010     1.4500 hn         1 DX9       0.419400
     42 HN12        -5.8680     0.0000     3.5900 hn         1 DX9       0.459467
     43 HN11        -4.6220     0.8200     4.2590 hn         1 DX9       0.459467
     44 H141         1.5710    -0.6160    -2.0270 hc         1 DX9       0.071700
     45 H142         3.0990    -0.3990    -1.1630 hc         1 DX9       0.071700
     46 H15          1.2090     1.8620    -1.9020 hc         1 DX9       0.048700
     47 H127         6.2530     7.3060     1.7250 h1         1 DX9       0.069200
     48 H130         4.5870     4.7220     4.0600 hc         1 DX9       0.060200
     49 H129         3.2260     7.3960     3.9940 h1         1 DX9       0.033200
     50 H229         4.3080     6.7160     5.2290 h1         1 DX9       0.033200
     51 HN31         6.9760    10.3120     3.5640 hn         1 DX9       0.403400
     52 H230         3.0440     5.1910     3.2890 hc         1 DX9       0.060200
     53 H331         3.8850     9.7520     4.6410 hc         1 DX9       0.049700
     54 H332         4.9330     9.0730     5.8940 hc         1 DX9       0.049700
     55 H333         5.3750    10.5890     5.0980 hc         1 DX9       0.049700
     56 H21          1.4900     3.6520    -0.4800 ha         1 DX9       0.139000
     57 H20          2.8820     5.0020     1.0430 ha         1 DX9       0.127000
     58 H17          4.7830     1.0190    -1.1660 ha         1 DX9       0.139000
     59 H18          6.1810     2.3640     0.3550 ha         1 DX9       0.127000
     60 H26          4.1580     6.1770     1.4050 h1         1 DX9       0.071700
     61 H13         -4.6200    -0.8150     4.2590 hn         1 DX9       0.459467
@<TRIPOS>BOND
     1     1     2 ar
     2     1    10 ar
     3     1    34 1
     4     2     3 ar
     5     2    14 1
     6     3     4 ar
     7     3    35 1
     8     4     5 ar
     9     4    36 1
    10     5     6 ar
    11     5    10 ar
    12     6     7 ar
    13     6    37 1
    14     7     8 ar
    15     7    38 1
    16     8     9 ar
    17     8    11 1
    18     9    10 ar
    19     9    39 1
    20    11    12 2
    21    11    13 1
    22    20    40 1
    23    12    41 1
    24    13    42 1
    25    13    43 1
    26    14    18 1
    27    14    44 1
    28    14    45 1
    29    15    16 1
    30    15    17 1
    31    15    18 1
    32    18    33 1
    33    18    46 1
    34    19    20 1
    35    19    23 1
    36    19    24 1
    37    20    21 1
    38    20    47 1
    39    21    22 1
    40    21    32 1
    41    22    23 1
    42    22    48 1
    43    23    49 1
    44    24    25 2
    45    24    26 1
    46    23    50 1
    47    25    51 1
    48    22    52 1
    49    26    53 1
    50    26    54 1
    51    26    55 1
    52    27    28 ar
    53    27    33 ar
    54    27    56 1
    55    28    31 ar
    56    28    57 1
    57    29    30 ar
    58    29    33 ar
    59    29    58 1
    60    30    31 ar
    61    30    59 1
    62    31    32 1
    63    21    60 1
    64    61    13 1
@<TRIPOS>SUBSTRUCTURE
     1 DX9         1 TEMP              0 ****  ****    0 ROOT
