@<TRIPOS>MOLECULE
molecule
   61    63     1     0     0
SMALL
bcc


@<TRIPOS>ATOM
      1 C1           0.0000     0.0000     0.0000 c          1 DXA       0.579700
      2 O1          -0.6280    -0.2090    -1.0170 o          1 DXA      -0.513100
      3 C9A          1.4680     0.0000     0.0000 ca         1 DXA      -0.214600
      4 C2          -0.7050     0.2700     1.3140 c3         1 DXA      -0.168400
      5 C3           0.0320    -0.5210     2.4010 c3         1 DXA      -0.083700
      6 C4           1.4540     0.0130     2.5400 c3         1 DXA      -0.041100
      7 C4A          2.1750     0.0000     1.2190 ca         1 DXA      -0.030300
      8 C10          3.5340    -0.0110     1.2190 ca         1 DXA      -0.148000
      9 C5A          4.2530    -0.0160     0.0090 ca         1 DXA       0.009000
     10 C5           5.6560    -0.0270     0.0050 ca         1 DXA      -0.141000
     11 C6           6.3360    -0.0250    -1.1770 ca         1 DXA      -0.088000
     12 C7           5.6610    -0.0120    -2.3930 ca         1 DXA      -0.107300
     13 C8           4.2840     0.0020    -2.4310 ca         1 DXA       0.138100
     14 O8           3.6320     0.0180    -3.6220 oh         1 DXA      -0.513100
     15 C8A          3.5570    -0.0050    -1.2230 ca         1 DXA      -0.106000
     16 C9           2.1510     0.0000    -1.2200 ca         1 DXA       0.204100
     17 O9           1.4650     0.0050    -2.3870 oh         1 DXA      -0.501100
     18 C6'          6.4440    -0.0090    -3.6800 c3         1 DXA      -0.029400
     19 C1'         -0.7050    -0.3670     3.7320 c3         1 DXA       0.036100
     20 O1'         -1.9940    -0.9760     3.6360 os         1 DXA      -0.371600
     21 C2'         -0.8620     1.0950     4.0530 c          1 DXA       0.529100
     22 O2'         -1.8400     1.6950     3.6740 o          1 DXA      -0.436100
     23 C3'          0.2000     1.8120     4.8460 c3         1 DXA       0.056100
     24 O3'          0.2380     3.1860     4.4570 oh         1 DXA      -0.554800
     25 C4'         -0.1250     1.7140     6.3380 c3         1 DXA       0.150100
     26 O4'         -1.3950     2.3160     6.5910 oh         1 DXA      -0.573800
     27 C5'          0.9540     2.4410     7.1430 c3         1 DXA      -0.117100
     28 C7'          7.3170    -1.2630    -3.7500 c3         1 DXA      -0.083100
     29 C8'          7.3330     1.2340    -3.7330 c3         1 DXA      -0.078400
     30 C9'          8.1280     1.2380    -5.0400 c3         1 DXA      -0.092100
     31 H21         -1.7340    -0.0610     1.2520 hc         1 DXA       0.090700
     32 H22         -0.6650     1.3290     1.5400 hc         1 DXA       0.090700
     33 H3           0.0680    -1.5670     2.1210 hc         1 DXA       0.071700
     34 H4A          1.4150     1.0300     2.9110 hc         1 DXA       0.051200
     35 H4E          1.9960    -0.6060     3.2440 hc         1 DXA       0.051200
     36 H10          4.0690    -0.0130     2.1610 ha         1 DXA       0.134000
     37 H5           6.2000    -0.0370     0.9420 ha         1 DXA       0.136000
     38 H6           7.4190    -0.0360    -1.1690 ha         1 DXA       0.138000
     39 HO8          3.4300     0.9090    -3.8570 ho         1 DXA       0.434000
     40 HO9          1.2680    -0.8820    -2.6400 ho         1 DXA       0.447000
     41 H11         -2.8130    -2.8030     4.1260 h1         1 DXA       0.034367
     42 H12         -1.2540    -2.8680     3.2920 h1         1 DXA       0.034367
     43 H13         -1.3290    -2.3800     4.9910 h1         1 DXA       0.034367
     44 H6'          5.7590     0.0020    -4.5190 hc         1 DXA       0.071700
     45 H1'         -0.1360    -0.8500     4.5180 h1         1 DXA       0.046700
     46 H3'          1.1630     1.3550     4.6550 h1         1 DXA       0.044700
     47 HO3          1.0240     3.3510     3.9630 ho         1 DXA       0.398000
     48 H4'         -0.1540     0.6720     6.6330 h1         1 DXA       0.028700
     49 HO4         -1.8100     1.8820     7.3180 ho         1 DXA       0.401000
     50 H51          1.0550     1.9740     8.1150 hc         1 DXA       0.046367
     51 H52          0.6710     3.4800     7.2700 hc         1 DXA       0.046367
     52 H53          1.8980     2.3850     6.6150 hc         1 DXA       0.046367
     53 H71          6.8360    -2.0680    -3.2070 hc         1 DXA       0.037700
     54 H72          7.4480    -1.5550    -4.7850 hc         1 DXA       0.037700
     55 H73          8.2840    -1.0560    -3.3080 hc         1 DXA       0.037700
     56 H81          8.0180     1.2240    -2.8940 hc         1 DXA       0.041700
     57 H82          6.7150     2.1220    -3.6840 hc         1 DXA       0.041700
     58 H91          8.4290     2.2520    -5.2770 hc         1 DXA       0.034700
     59 H92          9.0090     0.6170    -4.9290 hc         1 DXA       0.034700
     60 H93          7.5100     0.8490    -5.8400 hc         1 DXA       0.034700
     61 CME         -1.8380    -2.3390     4.0350 c3         1 DXA       0.109700
@<TRIPOS>BOND
     1     1     2 2
     2     1     3 1
     3     1     4 1
     4     3     7 ar
     5     3    16 ar
     6     4     5 1
     7     4    31 1
     8     4    32 1
     9     5     6 1
    10     5    19 1
    11     5    33 1
    12     6     7 1
    13     6    34 1
    14     6    35 1
    15     7     8 ar
    16     8     9 ar
    17     8    36 1
    18     9    10 ar
    19     9    15 ar
    20    10    11 ar
    21    10    37 1
    22    11    12 ar
    23    11    38 1
    24    12    13 ar
    25    12    18 1
    26    13    14 1
    27    13    15 ar
    28    14    39 1
    29    15    16 ar
    30    16    17 1
    31    17    40 1
    32    61    20 1
    33    61    41 1
    34    61    42 1
    35    61    43 1
    36    18    28 1
    37    18    29 1
    38    18    44 1
    39    19    20 1
    40    19    21 1
    41    19    45 1
    42    21    22 2
    43    21    23 1
    44    23    24 1
    45    23    25 1
    46    23    46 1
    47    24    47 1
    48    25    26 1
    49    25    27 1
    50    25    48 1
    51    26    49 1
    52    27    50 1
    53    27    51 1
    54    27    52 1
    55    28    53 1
    56    28    54 1
    57    28    55 1
    58    29    30 1
    59    29    56 1
    60    29    57 1
    61    30    58 1
    62    30    59 1
    63    30    60 1
@<TRIPOS>SUBSTRUCTURE
     1 DXA         1 TEMP              0 ****  ****    0 ROOT
