@<TRIPOS>MOLECULE
DXA
   61    61     1     0     0
SMALL
bcc


@<TRIPOS>ATOM
      1 C1          1.1100    0.7470    1.0990 c2        1 DXA      0.318000
      2 O1          0.0580    0.4170    0.5570 o         1 DXA     -0.286000
      3 C9A         2.4730    0.7780    0.5170 ca        1 DXA     -0.243000
      4 C2          1.2400    1.2360    2.5210 cx        1 DXA     -0.227000
      5 C3          2.0630    0.3920    3.4540 cx        1 DXA     -0.158000
      6 C4          2.7220    1.5550    2.7560 cx        1 DXA     -0.143000
      7 C4A         3.4100    1.2470    1.4780 ca        1 DXA      0.056000
      8 C10         4.7440    1.3850    1.1590 ca        1 DXA     -0.193000
      9 C5A         5.1810    1.0400   -0.1320 ca        1 DXA      0.037000
     10 C5          6.6310    1.2100   -0.4370 c3        1 DXA     -0.180000
     11 C6          7.1000    0.8360   -1.7650 c1        1 DXA     -0.129000
     12 C7          6.1900    0.3350   -2.6840 c2        1 DXA     -0.353000
     13 C8          4.8380    0.1810   -2.4000 c2        1 DXA      0.253000
     14 O8          3.9770   -0.3270   -3.3040 oh        1 DXA     -0.324000
     15 C8A         4.2800    0.5510   -1.1060 ca        1 DXA     -0.204000
     16 C9          2.8970    0.4350   -0.7710 ca        1 DXA      0.224000
     17 O9          1.9140   -0.0050   -1.6010 oh        1 DXA     -0.227000
     18 C6'         5.3960   -0.7930   -5.6100 c1        1 DXA      0.107000
     19 C1'        -2.6260    0.4550    4.4190 c1        1 DXA     -0.035000
     20 O1'        -2.2730    0.9940    3.2880 os        1 DXA     -0.132000
     21 C2'        -2.0160    0.9910    5.6470 c2        1 DXA      0.156000
     22 O2'        -2.4780    1.9430    6.2900 o         1 DXA     -0.302000
     23 C3'        -0.9020    0.1130    6.2160 c3        1 DXA     -0.040000
     24 O3'         0.3030    0.8530    6.2370 oh        1 DXA     -0.321000
     25 C4'        -1.2460   -0.3910    7.6320 c3        1 DXA      0.009000
     26 O4'        -1.2100    0.6920    8.5440 oh        1 DXA     -0.332000
     27 C5'        -2.5690   -1.1250    7.6620 c3        1 DXA     -0.250000
     28 C7'         9.7220    0.1170   -3.9710 c3        1 DXA     -0.284000
     29 C8'         5.8590   -0.3370   -6.9330 c3        1 DXA     -0.349000
     30 C9'         6.5000   -1.5220   -6.2600 c3        1 DXA     -0.349000
     31 H21        -1.5840    2.8590    1.7450 ha        1 DXA      0.000500
     32 H22         0.4110    1.8550    2.8980 hc        1 DXA      0.164000
     33 H3         -1.1940    2.3940    1.4430 ha        1 DXA      0.000500
     34 H4A         2.3340   -0.6390    3.1620 hc        1 DXA      0.132500
     35 H4E         3.0730    2.4290    3.3230 hc        1 DXA      0.151000
     36 H10         5.4680    1.7590    1.8970 ha        1 DXA      0.149000
     37 H5          6.9130    2.2920   -0.2750 hc        1 DXA      0.150000
     38 H6          7.2350    0.6130    0.3100 hc        1 DXA      0.150000
     39 HO8         4.4570   -0.5390   -4.1730 ho        1 DXA      0.313000
     40 HO9         2.2240   -0.0650   -2.5160 ho        1 DXA      0.253000
     41 H11        -2.0090    0.1700    1.4320 h1        1 DXA      0.116333
     42 H12        -3.4640   -0.5050    2.3640 h1        1 DXA      0.116333
     43 H13        -3.5230    1.2040    1.6710 h1        1 DXA      0.116333
     44 H6'         6.5610    0.0360   -3.6790 ha        1 DXA      0.131000
     45 H1'         1.8590    0.4820    4.5400 hc        1 DXA      0.132500
     46 H3'        -0.7000   -0.7590    5.5340 h1        1 DXA      0.131000
     47 HO3         0.2420    1.4780    6.9760 ho        1 DXA      0.227000
     48 H4'        -0.4080   -1.0630    7.9800 h1        1 DXA      0.126000
     49 HO4        -1.9560    1.2750    8.3380 ho        1 DXA      0.222000
     50 H51        -2.7990   -1.4440    8.7070 hc        1 DXA      0.092333
     51 H52        -2.5220   -2.0280    7.0080 hc        1 DXA      0.092333
     52 H53        -3.3950   -0.4630    7.3030 hc        1 DXA      0.092333
     53 H71        10.5340   -0.4770   -3.5010 hc        1 DXA      0.070000
     54 H72         9.2180   -0.5000   -4.7480 hc        1 DXA      0.070000
     55 H73        10.1550    1.0240   -4.4460 hc        1 DXA      0.070000
     56 H81         8.9790    0.4190   -3.1920 hc        1 DXA      0.070000
     57 H82         6.4220    0.6140   -7.0210 hc        1 DXA      0.162500
     58 H91         5.2190   -0.4920   -7.8240 hc        1 DXA      0.162500
     59 H92         6.3320   -2.5410   -6.6620 hc        1 DXA      0.162500
     60 H93         7.5270   -1.4310   -5.8510 hc        1 DXA      0.162500
     61 CME        -2.8750    0.4040    2.1020 c3        1 DXA     -0.086000
@<TRIPOS>BOND
     1    1    2 1   
     2    1    3 1   
     3    1    4 1   
     4    3    7 1   
     5    3   16 1   
     6    4    5 1   
     7    4    6 1   
     8    4   32 1   
     9    5    6 1   
    10    5   34 1   
    11    5   45 1   
    12    6    7 1   
    13    6   35 1   
    14    7    8 1   
    15    8    9 1   
    16    8   36 1   
    17    9   10 1   
    18    9   15 1   
    19   10   11 1   
    20   10   37 1   
    21   10   38 1   
    22   11   12 1   
    23   12   13 1   
    24   12   44 1   
    25   13   14 1   
    26   13   15 1   
    27   14   39 1   
    28   15   16 1   
    29   16   17 1   
    30   17   40 1   
    31   18   29 1   
    32   18   30 1   
    33   19   20 1   
    34   19   21 1   
    35   20   61 1   
    36   21   22 1   
    37   21   23 1   
    38   23   24 1   
    39   23   25 1   
    40   23   46 1   
    41   24   47 1   
    42   25   26 1   
    43   25   27 1   
    44   25   48 1   
    45   26   49 1   
    46   27   50 1   
    47   27   51 1   
    48   27   52 1   
    49   28   53 1   
    50   28   54 1   
    51   28   55 1   
    52   28   56 1   
    53   29   30 1   
    54   29   57 1   
    55   29   58 1   
    56   30   59 1   
    57   30   60 1   
    58   31   33 1   
    59   41   61 1   
    60   42   61 1   
    61   43   61 1   
@<TRIPOS>SUBSTRUCTURE
     1 DXA         1 TEMP              0 ****  ****    0 ROOT
