@<TRIPOS>MOLECULE
molecule
   52    54     1     0     0
SMALL
bcc


@<TRIPOS>ATOM
      1 C1           0.0000     0.0000     0.0000 c          1 DXB       0.588700
      2 O1          -0.6270    -0.2120    -1.0160 o          1 DXB      -0.519100
      3 C9A          1.4690     0.0000     0.0000 ca         1 DXB      -0.220600
      4 C2          -0.7040     0.2750     1.3100 c3         1 DXB      -0.180400
      5 C3           0.0320    -0.5120     2.4020 c3         1 DXB      -0.068700
      6 C4           1.4540     0.0200     2.5400 c3         1 DXB      -0.033100
      7 C4A          2.1750     0.0000     1.2190 ca         1 DXB      -0.024300
      8 C10          3.5350    -0.0120     1.2210 ca         1 DXB      -0.147000
      9 C5A          4.2550    -0.0150     0.0110 ca         1 DXB       0.013000
     10 C5           5.6590    -0.0270     0.0080 ca         1 DXB      -0.140000
     11 C6           6.3380    -0.0250    -1.1740 ca         1 DXB      -0.088000
     12 C7           5.6640    -0.0120    -2.3900 ca         1 DXB      -0.135300
     13 CC7          6.4480    -0.0080    -3.6770 c3         1 DXB      -0.042800
     14 C8           4.2870    -0.0040    -2.4280 ca         1 DXB       0.140100
     15 O8           3.6360     0.0090    -3.6210 oh         1 DXB      -0.496100
     16 C8A          3.5600    -0.0070    -1.2220 ca         1 DXB      -0.098000
     17 C9           2.1530    -0.0010    -1.2190 ca         1 DXB       0.210100
     18 O9           1.4680     0.0030    -2.3860 oh         1 DXB      -0.487100
     19 CME          0.2570     0.0070     5.7830 c3         1 DXB       0.111700
     20 C1S         -0.7060    -0.3520     3.7330 c3         1 DXB       0.040100
     21 O1S          0.0460    -0.9800     4.7720 os         1 DXB      -0.379600
     22 C2S         -2.0650    -0.9960     3.6350 c          1 DXB       0.539100
     23 O2S         -2.2030    -2.1590     3.9300 o          1 DXB      -0.463100
     24 C3S         -3.2490    -0.1910     3.1700 c3         1 DXB       0.054100
     25 O3S         -4.1790    -1.0490     2.5070 oh         1 DXB      -0.573800
     26 C4S         -3.9280     0.4610     4.3770 c3         1 DXB       0.135100
     27 O4S         -2.9990     1.3190     5.0380 oh         1 DXB      -0.622800
     28 C5S         -5.1310     1.2790     3.9030 c3         1 DXB      -0.119100
     29 H21         -0.6630     1.3350     1.5320 hc         1 DXB       0.069700
     30 H22         -1.7330    -0.0560     1.2500 hc         1 DXB       0.069700
     31 H3           0.0660    -1.5590     2.1270 hc         1 DXB       0.082700
     32 H4A          1.4170     1.0380     2.9070 hc         1 DXB       0.064200
     33 H4E          1.9950    -0.5980     3.2470 hc         1 DXB       0.064200
     34 H10          4.0690    -0.0220     2.1630 ha         1 DXB       0.139000
     35 H5           6.2020    -0.0360     0.9450 ha         1 DXB       0.138000
     36 H6           7.4210    -0.0360    -1.1660 ha         1 DXB       0.134000
     37 HM71         6.2050    -0.8930    -4.2510 hc         1 DXB       0.046367
     38 HM72         7.5080    -0.0030    -3.4530 hc         1 DXB       0.046367
     39 HM73         6.1960     0.8760    -4.2500 hc         1 DXB       0.046367
     40 HO8          3.7430    -0.8260    -4.0450 ho         1 DXB       0.417000
     41 HO9          1.2740    -0.8840    -2.6400 ho         1 DXB       0.434000
     42 HM11        -0.5870     0.0150     6.4620 h1         1 DXB       0.034700
     43 HM12         1.1610    -0.2260     6.3330 h1         1 DXB       0.034700
     44 HM13         0.3570     0.9820     5.3210 h1         1 DXB       0.034700
     45 HS1         -0.8210     0.7020     3.9570 h1         1 DXB       0.074700
     46 HS3         -2.9160     0.5790     2.4850 h1         1 DXB       0.057700
     47 HO3         -4.3500    -0.7170     1.6410 ho         1 DXB       0.410000
     48 HS4         -4.2610    -0.3080     5.0630 h1         1 DXB       0.058700
     49 HO4         -3.3370     1.5550     5.8860 ho         1 DXB       0.414000
     50 HM51        -5.1800     2.2060     4.4620 hc         1 DXB       0.045033
     51 HM52        -5.0260     1.4990     2.8480 hc         1 DXB       0.045033
     52 HM53        -6.0400     0.7120     4.0650 hc         1 DXB       0.045033
@<TRIPOS>BOND
     1     1     2 2
     2     1     3 1
     3     1     4 1
     4     3     7 ar
     5     3    17 ar
     6     4     5 1
     7     4    29 1
     8     4    30 1
     9     5     6 1
    10     5    20 1
    11     5    31 1
    12     6     7 1
    13     6    32 1
    14     6    33 1
    15     7     8 ar
    16     8     9 ar
    17     8    34 1
    18     9    10 ar
    19     9    16 ar
    20    10    11 ar
    21    10    35 1
    22    11    12 ar
    23    11    36 1
    24    12    13 1
    25    12    14 ar
    26    13    37 1
    27    13    38 1
    28    13    39 1
    29    14    15 1
    30    14    16 ar
    31    15    40 1
    32    16    17 ar
    33    17    18 1
    34    18    41 1
    35    19    21 1
    36    19    42 1
    37    19    43 1
    38    19    44 1
    39    20    21 1
    40    20    22 1
    41    20    45 1
    42    22    23 2
    43    22    24 1
    44    24    25 1
    45    24    26 1
    46    24    46 1
    47    25    47 1
    48    26    27 1
    49    26    28 1
    50    26    48 1
    51    27    49 1
    52    28    50 1
    53    28    51 1
    54    28    52 1
@<TRIPOS>SUBSTRUCTURE
     1 DXB         1 TEMP              0 ****  ****    0 ROOT
