@<TRIPOS>MOLECULE
DXB
   52    54     1     0     0
SMALL
bcc


@<TRIPOS>ATOM
      1 C1          0.0210    0.0570   -0.2290 c         1 DXB      0.605700
      2 O1         -0.6380   -0.0130   -1.2830 o         1 DXB     -0.586100
      3 C9A         1.4880    0.0700   -0.2120 ca        1 DXB     -0.284600
      4 C2         -0.7210    0.1660    1.0760 c3        1 DXB     -0.179400
      5 C3          0.0710   -0.3830    2.2440 c3        1 DXB     -0.051700
      6 C4          1.4190    0.3140    2.3120 c3        1 DXB     -0.040100
      7 C4A         2.1750    0.1850    1.0360 ca        1 DXB      0.001700
      8 C10         3.5460    0.1910    1.0770 ca        1 DXB     -0.174000
      9 C5A         4.3270    0.1020   -0.1090 ca        1 DXB      0.040000
     10 C5          5.7400    0.0930   -0.0310 ca        1 DXB     -0.172000
     11 C6          6.5030    0.0010   -1.1720 ca        1 DXB     -0.069000
     12 C7          5.9000   -0.0620   -2.4440 ca        1 DXB     -0.130300
     13 CC7         6.7350   -0.1580   -3.6620 c3        1 DXB     -0.039800
     14 C8          4.5040   -0.0450   -2.5390 ca        1 DXB      0.174100
     15 O8          4.0110   -0.1340   -3.8170 oh        1 DXB     -0.500100
     16 C8A         3.6840    0.0140   -1.3710 ca        1 DXB     -0.134000
     17 C9          2.2440   -0.0290   -1.3830 ca        1 DXB      0.252100
     18 O9          1.7070   -0.1760   -2.6280 oh        1 DXB     -0.529100
     19 CME        -0.3480   -0.4330    5.8950 c3        1 DXB      0.114700
     20 C1S        -0.6950   -0.1800    3.5590 c3        1 DXB      0.060100
     21 O1S         0.1370   -0.7120    4.5900 os        1 DXB     -0.401600
     22 C2S        -2.0280   -0.9050    3.5170 c         1 DXB      0.520100
     23 O2S        -2.1540   -2.1190    3.6910 o         1 DXB     -0.506100
     24 C3S        -3.2520   -0.0410    3.2490 c3        1 DXB      0.040100
     25 O3S        -4.2530   -0.7750    2.5740 oh        1 DXB     -0.581800
     26 C4S        -3.8130    0.5190    4.5740 c3        1 DXB      0.116100
     27 O4S        -2.7590    1.2620    5.1780 oh        1 DXB     -0.616800
     28 C5S        -5.0330    1.3790    4.3160 c3        1 DXB     -0.132100
     29 H21        -0.9500    1.2550    1.2400 hc        1 DXB      0.079200
     30 H22        -1.7020   -0.3750    0.9800 hc        1 DXB      0.079200
     31 H3          0.2350   -1.4890    2.1070 hc        1 DXB      0.089700
     32 H4A         1.2700    1.4060    2.5340 hc        1 DXB      0.068700
     33 H4E         2.0110   -0.1220    3.1630 hc        1 DXB      0.068700
     34 H10         4.0750    0.2630    2.0400 ha        1 DXB      0.141000
     35 H5          6.2160    0.1570    0.9580 ha        1 DXB      0.138000
     36 H6          7.6030   -0.0140   -1.1070 ha        1 DXB      0.137000
     37 HM71        7.7760    0.1960   -3.4650 hc        1 DXB      0.047033
     38 HM72        6.2930    0.4550   -4.4870 hc        1 DXB      0.047033
     39 HM73        6.7790   -1.2210   -4.0110 hc        1 DXB      0.047033
     40 HO8         3.1570    0.3180   -3.8710 ho        1 DXB      0.443000
     41 HO9         0.7420   -0.2910   -2.5960 ho        1 DXB      0.478000
     42 HM11       -0.4340    0.6700    6.0570 h1        1 DXB      0.040367
     43 HM12       -1.3480   -0.9110    6.0470 h1        1 DXB      0.040367
     44 HM13        0.4180   -0.8840    6.5730 h1        1 DXB      0.040367
     45 HS1        -0.8790    0.9150    3.7540 h1        1 DXB      0.073700
     46 HS3        -2.9930    0.8080    2.5550 h1        1 DXB      0.099700
     47 HO3        -4.3340   -1.6340    3.0130 ho        1 DXB      0.421000
     48 HS4        -4.0800   -0.3420    5.2510 h1        1 DXB      0.046700
     49 HO4        -3.1600    1.8320    5.8450 ho        1 DXB      0.414000
     50 HM51       -5.7630    0.8130    3.6890 hc        1 DXB      0.054367
     51 HM52       -4.7430    2.3120    3.7750 hc        1 DXB      0.054367
     52 HM53       -5.5200    1.6600    5.2800 hc        1 DXB      0.054367
@<TRIPOS>BOND
     1    1    2 2   
     2    1    3 1   
     3    1    4 1   
     4    3    7 ar  
     5    3   17 ar  
     6    4    5 1   
     7    4   29 1   
     8    4   30 1   
     9    5    6 1   
    10    5   20 1   
    11    5   31 1   
    12    6    7 1   
    13    6   32 1   
    14    6   33 1   
    15    7    8 ar  
    16    8    9 ar  
    17    8   34 1   
    18    9   10 ar  
    19    9   16 ar  
    20   10   11 ar  
    21   10   35 1   
    22   11   12 ar  
    23   11   36 1   
    24   12   13 1   
    25   12   14 ar  
    26   13   37 1   
    27   13   38 1   
    28   13   39 1   
    29   14   15 1   
    30   14   16 ar  
    31   15   40 1   
    32   16   17 ar  
    33   17   18 1   
    34   18   41 1   
    35   19   21 1   
    36   19   42 1   
    37   19   43 1   
    38   19   44 1   
    39   20   21 1   
    40   20   22 1   
    41   20   45 1   
    42   22   23 2   
    43   22   24 1   
    44   24   25 1   
    45   24   26 1   
    46   24   46 1   
    47   25   47 1   
    48   26   27 1   
    49   26   28 1   
    50   26   48 1   
    51   27   49 1   
    52   28   50 1   
    53   28   51 1   
    54   28   52 1   
@<TRIPOS>SUBSTRUCTURE
     1 DXB         1 TEMP              0 ****  ****    0 ROOT
