@<TRIPOS>MOLECULE
DXC
   67    70     1     0     0
SMALL
bcc


@<TRIPOS>ATOM
      1 C1         -0.0450   -0.1060   -0.1570 c3        1 DXC      0.142100
      2 C2          1.4770   -0.0700   -0.1760 c3        1 DXC     -0.074400
      3 C3          2.0500   -0.0510    1.2330 c3        1 DXC     -0.049700
      4 C4          1.4990    1.1060    2.0940 c3        1 DXC     -0.035000
      5 C5         -0.0350    1.0690    2.0340 c3        1 DXC     -0.067400
      6 C6         -0.5920    1.0790    0.6300 c3        1 DXC     -0.114400
      7 C7          3.5700   -0.0290    1.1720 c3        1 DXC     -0.070400
      8 C8          4.1140    1.3020    0.7060 c3        1 DXC     -0.074400
      9 C9          3.5950    2.4430    1.5640 c3        1 DXC     -0.046700
     10 C10         2.0580    2.4470    1.5890 c3        1 DXC     -0.046700
     11 C11         4.0550    3.7800    1.0190 c3        1 DXC     -0.066700
     12 C12         3.6260    4.9620    1.9210 c3        1 DXC     -0.079000
     13 C13         2.0930    4.9950    1.9270 c3        1 DXC      0.155100
     14 C14         1.5160    3.6410    2.3640 c3        1 DXC     -0.067400
     15 C15         5.5440    3.9990    0.7970 c3        1 DXC     -0.074400
     16 C16         5.7230    5.5180    0.8280 c3        1 DXC     -0.078400
     17 C17         4.3700    6.1370    1.2360 c3        1 DXC     -0.050700
     18 C18         1.8780    0.8590    3.5530 c3        1 DXC     -0.088100
     19 C19         4.5450    7.4200    2.0410 c3        1 DXC     -0.064700
     20 O1          1.5300    5.2750    0.6510 oh        1 DXC     -0.611800
     21 O2         -0.4730   -0.0850   -1.5150 oh        1 DXC     -0.603800
     22 C20         4.1210    4.8190    3.3520 c3        1 DXC     -0.081100
     23 C21         5.3210    8.4510    1.2230 c3        1 DXC     -0.068400
     24 C22         5.8680    9.5790    2.0640 c3        1 DXC     -0.196400
     25 C23         6.9170   10.3970    1.2860 c         1 DXC      0.908600
     26 O3          7.7820    9.7750    0.6040 o         1 DXC     -0.850800
     27 O4          6.8700   11.6560    1.3870 o         1 DXC     -0.850800
     28 C24         3.2080    8.0010    2.4610 c3        1 DXC     -0.088100
     29 H1         -0.4040   -1.0680    0.3110 h1        1 DXC      0.025700
     30 H22         1.8560   -0.9730   -0.7220 hc        1 DXC      0.056700
     31 H21         1.8110    0.8320   -0.7520 hc        1 DXC      0.056700
     32 H3          1.7380   -1.0120    1.7360 hc        1 DXC      0.035700
     33 H52        -0.3810    0.1320    2.5500 hc        1 DXC      0.038700
     34 H51        -0.4550    1.9330    2.6100 hc        1 DXC      0.038700
     35 H62        -0.3230    2.0340    0.1070 hc        1 DXC      0.049700
     36 H61        -1.7110    1.0200    0.6700 hc        1 DXC      0.049700
     37 H72         3.9790   -0.2630    2.1910 hc        1 DXC      0.035700
     38 H71         3.9210   -0.8390    0.4790 hc        1 DXC      0.035700
     39 H82         5.2350    1.2880    0.7540 hc        1 DXC      0.043200
     40 H81         3.8320    1.4770   -0.3660 hc        1 DXC      0.043200
     41 H9          3.9930    2.3070    2.6070 hc        1 DXC      0.049700
     42 H10         1.7120    2.5740    0.5210 hc        1 DXC      0.064700
     43 H11         3.5390    3.9290    0.0230 hc        1 DXC      0.058700
     44 H13         1.7380    5.7830    2.6530 h1        1 DXC      0.033700
     45 H142        0.4050    3.6960    2.2170 hc        1 DXC      0.043700
     46 H141        1.7180    3.5190    3.4580 hc        1 DXC      0.043700
     47 H152        6.1440    3.5100    1.6040 hc        1 DXC      0.034200
     48 H151        5.8740    3.5670   -0.1790 hc        1 DXC      0.034200
     49 H162        6.0320    5.9030   -0.1750 hc        1 DXC      0.057700
     50 H161        6.5190    5.8050    1.5600 hc        1 DXC      0.057700
     51 H17         3.8150    6.4010    0.2930 hc        1 DXC      0.037700
     52 H183        1.5730   -0.1710    3.8620 hc        1 DXC      0.033033
     53 H182        2.9770    0.9590    3.7090 hc        1 DXC      0.033033
     54 H181        1.3580    1.5900    4.2180 hc        1 DXC      0.033033
     55 H19         5.1430    7.1870    2.9660 hc        1 DXC      0.046700
     56 H1O1        1.8700    6.1370    0.3800 ho        1 DXC      0.409000
     57 H2         -1.4070    0.1560   -1.5100 ho        1 DXC      0.396000
     58 H203        3.7840    5.6910    3.9650 hc        1 DXC      0.035033
     59 H202        3.7350    3.8900    3.8340 hc        1 DXC      0.035033
     60 H201        5.2380    4.7870    3.3680 hc        1 DXC      0.035033
     61 H212        6.1910    7.9620    0.7070 hc        1 DXC      0.048200
     62 H211        4.6520    8.8660    0.4250 hc        1 DXC      0.048200
     63 H222        5.0490   10.2640    2.3990 hc        1 DXC      0.019700
     64 H221        6.3690    9.1710    2.9780 hc        1 DXC      0.019700
     65 H243        3.3360    9.0660    2.7730 hc        1 DXC      0.025367
     66 H242        2.4780    7.9680    1.6160 hc        1 DXC      0.025367
     67 H241        2.7770    7.4380    3.3240 hc        1 DXC      0.025367
@<TRIPOS>BOND
     1    1    2 1   
     2    1    6 1   
     3    1   21 1   
     4    1   29 1   
     5    2    3 1   
     6    2   30 1   
     7    2   31 1   
     8    3    4 1   
     9    3    7 1   
    10    3   32 1   
    11    4    5 1   
    12    4   10 1   
    13    4   18 1   
    14    5    6 1   
    15    5   33 1   
    16    5   34 1   
    17    6   35 1   
    18    6   36 1   
    19    7    8 1   
    20    7   37 1   
    21    7   38 1   
    22    8    9 1   
    23    8   39 1   
    24    8   40 1   
    25    9   10 1   
    26    9   11 1   
    27    9   41 1   
    28   10   14 1   
    29   10   42 1   
    30   11   12 1   
    31   11   15 1   
    32   11   43 1   
    33   12   13 1   
    34   12   17 1   
    35   12   22 1   
    36   13   14 1   
    37   13   20 1   
    38   13   44 1   
    39   14   45 1   
    40   14   46 1   
    41   15   16 1   
    42   15   47 1   
    43   15   48 1   
    44   16   17 1   
    45   16   49 1   
    46   16   50 1   
    47   17   19 1   
    48   17   51 1   
    49   18   52 1   
    50   18   53 1   
    51   18   54 1   
    52   19   23 1   
    53   19   28 1   
    54   19   55 1   
    55   20   56 1   
    56   21   57 1   
    57   22   58 1   
    58   22   59 1   
    59   22   60 1   
    60   23   24 1   
    61   23   61 1   
    62   23   62 1   
    63   24   25 1   
    64   24   63 1   
    65   24   64 1   
    66   25   26 1   
    67   25   27 1   
    68   28   65 1   
    69   28   66 1   
    70   28   67 1   
@<TRIPOS>SUBSTRUCTURE
     1 DXC         1 TEMP              0 ****  ****    0 ROOT
