@<TRIPOS>MOLECULE
molecule
   67    70     1     0     0
SMALL
bcc


@<TRIPOS>ATOM
      1 C1           0.0000     0.0000     0.0000 c3         1 DXC       0.148100
      2 C2           1.5290     0.0000     0.0000 c3         1 DXC      -0.091400
      3 C3           2.0400     0.0000     1.4410 c3         1 DXC      -0.053700
      4 C4           1.5310     1.2500     2.1610 c3         1 DXC      -0.056000
      5 C5           0.0020     1.2490     2.1630 c3         1 DXC      -0.070400
      6 C6          -0.5100     1.2480     0.7220 c3         1 DXC      -0.093400
      7 C7           3.5700    -0.0010     1.4390 c3         1 DXC      -0.076400
      8 C8           4.0820     1.2490     0.7220 c3         1 DXC      -0.075400
      9 C9           3.5750     2.4960     1.4450 c3         1 DXC      -0.062700
     10 C10          2.0400     2.5080     1.4550 c3         1 DXC      -0.050700
     11 C11          4.0320     3.7500     0.7230 c3         1 DXC      -0.065700
     12 C12          3.5650     4.9730     1.5580 c3         1 DXC      -0.061000
     13 C13          2.0530     5.0370     1.5150 c3         1 DXC       0.161100
     14 C14          1.4850     3.7520     2.1410 c3         1 DXC      -0.098400
     15 C15          5.5460     3.9720     0.6640 c3         1 DXC      -0.082400
     16 C16          5.6640     5.5010     0.4210 c3         1 DXC      -0.075400
     17 C17          4.3520     6.1300     0.9530 c3         1 DXC      -0.046700
     18 C18          2.0430     1.2550     3.6030 c3         1 DXC      -0.088100
     19 C19          4.6630     7.1780     2.0220 c3         1 DXC      -0.079700
     20 O1           1.6660     5.1230     0.1440 oh         1 DXC      -0.602800
     21 O2          -0.4780    -0.0000    -1.3470 oh         1 DXC      -0.605800
     22 C20          4.0320     4.7240     2.9930 c3         1 DXC      -0.099100
     23 C21          5.4810     8.3140     1.4030 c3         1 DXC      -0.060400
     24 C22          5.7920     9.3620     2.4730 c3         1 DXC      -0.186400
     25 C23          6.5970    10.4790     1.8620 c          1 DXC       0.890600
     26 O3           6.8910    10.4420     0.6910 o          1 DXC      -0.856800
     27 O4           6.9860    11.5170     2.6190 o          1 DXC      -0.856800
     28 C24          3.3550     7.7380     2.5820 c3         1 DXC      -0.095100
     29 H1          -0.3590    -0.8830     0.5150 h1         1 DXC       0.021700
     30 H22          1.8890    -0.8860    -0.5090 hc         1 DXC       0.056700
     31 H21          1.8890     0.8860    -0.5090 hc         1 DXC       0.056700
     32 H3           1.6780    -0.8840     1.9530 hc         1 DXC       0.040700
     33 H52         -0.3570     0.3630     2.6720 hc         1 DXC       0.040700
     34 H51         -0.3580     2.1350     2.6720 hc         1 DXC       0.040700
     35 H62         -0.1470     2.1320     0.2110 hc         1 DXC       0.054200
     36 H61         -1.5930     1.2450     0.7240 hc         1 DXC       0.054200
     37 H72          3.9310    -0.0030     2.4610 hc         1 DXC       0.037700
     38 H71          3.9280    -0.8840     0.9230 hc         1 DXC       0.037700
     39 H82          5.1650     1.2460     0.7240 hc         1 DXC       0.044700
     40 H81          3.7180     1.2520    -0.2990 hc         1 DXC       0.044700
     41 H9           3.9470     2.5050     2.4630 hc         1 DXC       0.060700
     42 H10          1.6880     2.4950     0.4300 hc         1 DXC       0.069700
     43 H11          3.6060     3.7890    -0.2720 hc         1 DXC       0.073700
     44 H13          1.7030     5.9040     2.0620 h1         1 DXC       0.044700
     45 H142         0.4070     3.7590     2.0430 hc         1 DXC       0.042700
     46 H141         1.7510     3.7240     3.1910 hc         1 DXC       0.042700
     47 H152         6.0090     3.6980     1.6050 hc         1 DXC       0.036200
     48 H151         5.9810     3.4200    -0.1600 hc         1 DXC       0.036200
     49 H162         5.7680     5.7010    -0.6390 hc         1 DXC       0.051200
     50 H161         6.5130     5.8990     0.9650 hc         1 DXC       0.051200
     51 H17          3.7950     6.5740     0.1370 hc         1 DXC       0.063700
     52 H183         1.7920     0.3150     4.0790 hc         1 DXC       0.035033
     53 H182         3.1190     1.3840     3.6040 hc         1 DXC       0.035033
     54 H181         1.5820     2.0700     4.1470 hc         1 DXC       0.035033
     55 H19          5.2310     6.7190     2.8230 hc         1 DXC       0.044700
     56 H1O1         0.9110     5.6810     0.0650 ho         1 DXC       0.392000
     57 H2          -0.9850    -0.7800    -1.5000 ho         1 DXC       0.393000
     58 H203         3.6480     5.5050     3.6390 hc         1 DXC       0.039367
     59 H202         3.6640     3.7630     3.3310 hc         1 DXC       0.039367
     60 H201         5.1150     4.7280     3.0270 hc         1 DXC       0.039367
     61 H212         4.9130     8.7730     0.6030 hc         1 DXC       0.047700
     62 H211         6.4080     7.9170     1.0060 hc         1 DXC       0.047700
     63 H222         6.3600     8.9030     3.2730 hc         1 DXC       0.027700
     64 H221         4.8650     9.7590     2.8690 hc         1 DXC       0.027700
     65 H243         2.6680     7.9330     1.7680 hc         1 DXC       0.029033
     66 H242         3.5560     8.6610     3.1130 hc         1 DXC       0.029033
     67 H241         2.9150     7.0190     3.2620 hc         1 DXC       0.029033
@<TRIPOS>BOND
     1     1     2 1
     2     1     6 1
     3     1    21 1
     4     1    29 1
     5     2     3 1
     6     2    30 1
     7     2    31 1
     8     3     4 1
     9     3     7 1
    10     3    32 1
    11     4     5 1
    12     4    10 1
    13     4    18 1
    14     5     6 1
    15     5    33 1
    16     5    34 1
    17     6    35 1
    18     6    36 1
    19     7     8 1
    20     7    37 1
    21     7    38 1
    22     8     9 1
    23     8    39 1
    24     8    40 1
    25     9    10 1
    26     9    11 1
    27     9    41 1
    28    10    14 1
    29    10    42 1
    30    11    12 1
    31    11    15 1
    32    11    43 1
    33    12    13 1
    34    12    17 1
    35    12    22 1
    36    13    14 1
    37    13    20 1
    38    13    44 1
    39    14    45 1
    40    14    46 1
    41    15    16 1
    42    15    47 1
    43    15    48 1
    44    16    17 1
    45    16    49 1
    46    16    50 1
    47    17    19 1
    48    17    51 1
    49    18    52 1
    50    18    53 1
    51    18    54 1
    52    19    23 1
    53    19    28 1
    54    19    55 1
    55    20    56 1
    56    21    57 1
    57    22    58 1
    58    22    59 1
    59    22    60 1
    60    23    24 1
    61    23    61 1
    62    23    62 1
    63    24    25 1
    64    24    63 1
    65    24    64 1
    66    25    26 1
    67    25    27 1
    68    28    65 1
    69    28    66 1
    70    28    67 1
@<TRIPOS>SUBSTRUCTURE
     1 DXC         1 TEMP              0 ****  ****    0 ROOT
