@<TRIPOS>MOLECULE
molecule
   16    15     1     0     0
SMALL
bcc


@<TRIPOS>ATOM
      1 C4           0.0000     0.0000     0.0000 c3         1 DXE       0.114700
      2 O2           1.4290     0.0000     0.0000 os         1 DXE      -0.395600
      3 C3           1.8430     0.0000     1.3670 c3         1 DXE       0.125400
      4 C2           3.3700    -0.0010     1.4380 c3         1 DXE       0.125400
      5 O1           3.8780     1.1630     0.7860 os         1 DXE      -0.395600
      6 C1           5.3030     1.1050     0.8870 c3         1 DXE       0.114700
      7 H41         -0.3610     0.8840     0.5120 h1         1 DXE       0.030367
      8 H42         -0.3610     0.0020    -1.0210 h1         1 DXE       0.030367
      9 H43         -0.3610    -0.8850     0.5090 h1         1 DXE       0.030367
     10 H31          1.4580    -0.8840     1.8610 h1         1 DXE       0.032700
     11 H32          1.4590     0.8850     1.8600 h1         1 DXE       0.032700
     12 H21          3.6830    -0.0010     2.4750 h1         1 DXE       0.032700
     13 H22          3.7540    -0.8870     0.9450 h1         1 DXE       0.032700
     14 H11          5.7350     1.9730     0.4020 h1         1 DXE       0.030367
     15 H12          5.6630     0.2050     0.4030 h1         1 DXE       0.030367
     16 H13          5.5910     1.0940     1.9310 h1         1 DXE       0.030367
@<TRIPOS>BOND
     1     1     2 1
     2     1     7 1
     3     1     8 1
     4     1     9 1
     5     2     3 1
     6     3     4 1
     7     3    10 1
     8     3    11 1
     9     4     5 1
    10     4    12 1
    11     4    13 1
    12     5     6 1
    13     6    14 1
    14     6    15 1
    15     6    16 1
@<TRIPOS>SUBSTRUCTURE
     1 DXE         1 TEMP              0 ****  ****    0 ROOT
