@<TRIPOS>MOLECULE
DXE
   16    15     1     0     0
SMALL
bcc


@<TRIPOS>ATOM
      1 C4         -0.0590   -0.2160    0.0210 c3        1 DXE      0.117700
      2 O2          1.3280   -0.4550    0.1800 os        1 DXE     -0.425600
      3 C3          1.8550    0.1490    1.3600 c3        1 DXE      0.123400
      4 C2          3.3660   -0.0570    1.3120 c3        1 DXE      0.123400
      5 O1          3.9490    1.2430    1.2430 os        1 DXE     -0.425600
      6 C1          5.3520    1.2000    1.0510 c3        1 DXE      0.117700
      7 H41        -0.6340   -0.6370    0.8830 h1        1 DXE      0.033033
      8 H42        -0.3270   -0.7480   -0.9260 h1        1 DXE      0.033033
      9 H43        -0.2640    0.8790   -0.0730 h1        1 DXE      0.033033
     10 H31         1.4150   -0.3550    2.2600 h1        1 DXE      0.042700
     11 H32         1.6030    1.2430    1.3820 h1        1 DXE      0.042700
     12 H21         3.7250   -0.5720    2.2410 h1        1 DXE      0.042700
     13 H22         3.6570   -0.6610    0.4120 h1        1 DXE      0.042700
     14 H11         5.8500    0.6690    1.8990 h1        1 DXE      0.033033
     15 H12         5.6030    0.6950    0.0860 h1        1 DXE      0.033033
     16 H13         5.6630    2.2750    1.0240 h1        1 DXE      0.033033
@<TRIPOS>BOND
     1    1    2 1   
     2    1    7 1   
     3    1    8 1   
     4    1    9 1   
     5    2    3 1   
     6    3    4 1   
     7    3   10 1   
     8    3   11 1   
     9    4    5 1   
    10    4   12 1   
    11    4   13 1   
    12    5    6 1   
    13    6   14 1   
    14    6   15 1   
    15    6   16 1   
@<TRIPOS>SUBSTRUCTURE
     1 DXE         1 TEMP              0 ****  ****    0 ROOT
