@<TRIPOS>MOLECULE
DXF
   48    41     1     0     0
SMALL
bcc


@<TRIPOS>ATOM
      1 C          -4.6040   -2.0380    1.3900 c2        1 DXF      0.251000
      2 N          -1.1810   -0.1190    1.8230 n         1 DXF     -0.403000
      3 O          -3.8540   -1.2050    0.8550 o         1 DXF     -0.391000
      4 CA         -5.2970   -3.1050    0.6710 c2        1 DXF     -0.281000
      5 CB         -5.0820   -3.3920   -0.6160 c2        1 DXF     -0.096000
      6 CAA         3.4510   -2.6980    2.7380 c1        1 DXF      0.001000
      7 NAB        -3.1270    3.5160    0.8550 n3        1 DXF     -0.254000
      8 OAD        -3.9060    3.6470   -1.4730 o         1 DXF      0.027000
      9 OAF        -1.2790    2.0730    2.3650 o         1 DXF     -0.482000
     10 CAI         1.2910    3.1720    6.0940 c1        1 DXF     -0.190000
     11 CAJ         1.3560    4.1670    6.7550 c1        1 DXF     -0.164000
     12 CAK         1.2170    1.9650    5.3310 c3        1 DXF     -0.085000
     13 CAM         1.4860    6.6440    0.5730 c1        1 DXF     -0.284000
     14 NAN         1.5720   -0.0540    3.1180 n2        1 DXF      0.067000
     15 NAP        -1.4080    5.2690   -0.8630 n1        1 DXF     -0.186000
     16 OAQ         1.3530   -1.1410    2.4900 oh        1 DXF     -0.354000
     17 OAS         1.1430    3.2520    3.2690 o         1 DXF     -0.283000
     18 SAT         2.7570    7.1860    0.2890 s         1 DXF      0.528000
     19 CAU        -3.4680    3.5900   -0.3870 c1        1 DXF      0.482000
     20 CAX         0.2860    6.1380    0.8670 c2        1 DXF     -0.216000
     21 CAY         0.6870    0.9150    3.0980 c2        1 DXF     -0.253000
     22 CAZ        -0.6120    5.6850   -0.1200 c1        1 DXF      0.018000
     23 CBA         1.0300    2.1750    3.8530 c2        1 DXF      0.322000
     24 H1         -4.7870   -2.0010    2.4890 h4        1 DXF      0.106000
     25 H3         -4.3600   -2.8300   -1.2310 ha        1 DXF      0.134500
     26 H5         -2.0910   -0.0690    1.4250 hn        1 DXF      0.246000
     27 H6         -6.0190   -3.6800    1.2750 ha        1 DXF      0.150000
     28 H7          4.2560   -2.7100    1.9940 ha        1 DXF      0.078500
     29 H8          3.5890   -3.3840    3.5820 ha        1 DXF      0.078500
     30 H9          2.2350   -1.7660    2.6160 ho        1 DXF      0.332000
     31 H10        -2.7510    4.3330    1.3420 hn        1 DXF      0.350500
     32 H11        -0.6720    4.1580    2.5670 ho        1 DXF      0.251000
     33 H13         1.4150    5.0460    7.3460 ha        1 DXF      0.231000
     34 H14         0.3650    1.3310    5.7110 hc        1 DXF      0.134000
     35 H15         2.1660    1.3690    5.4720 hc        1 DXF      0.134000
     36 H16        -0.7540    6.9660    2.5690 h1        1 DXF      0.107500
     37 H17        -2.9940    3.9950    3.6160 ha        1 DXF      0.003500
     38 H18        -2.6060    3.4440    3.6940 ha        1 DXF      0.003500
     39 H2          0.6620    5.8590    2.9820 h1        1 DXF      0.107500
     40 H4         -5.6100   -4.2070   -1.1310 ha        1 DXF      0.134500
     41 CAL        -0.2030    6.0270    2.2850 c3        1 DXF      0.064000
     42 CAV        -2.9520   -0.0180   -1.2000 c1        1 DXF      0.477000
     43 H21        -0.7260   -0.9990    1.8540 hn        1 DXF      0.246000
     44 HAB3       -2.8420    2.6080    1.2400 hn        1 DXF      0.350500
     45 CAW        -0.6410    0.9850    2.4080 c2        1 DXF      0.366000
     46 OAE        -2.9000   -1.0350   -1.8030 o         1 DXF     -0.238500
     47 OAG        -2.9920    1.0250   -0.6130 o         1 DXF     -0.238500
     48 OAR        -1.1540    4.9880    2.4260 oh        1 DXF     -0.382000
@<TRIPOS>BOND
     1    1    3 1
     2    1    4 1
     3    1   24 1
     4    2   26 1
     5    2   43 1
     6    2   45 1
     7    4    5 1
     8    4   27 1
     9    5   25 1
    10    5   40 1
    11    6   28 1
    12    6   29 1
    13    7   19 1
    14    7   31 1
    15    7   44 1
    16    8   19 1
    17    9   45 1
    18   10   11 1
    19   10   12 1
    20   11   33 1
    21   12   23 1
    22   12   34 1
    23   12   35 1
    24   13   18 1
    25   13   20 1
    26   14   16 1
    27   14   21 1
    28   15   22 1
    29   16   30 1
    30   17   23 1
    31   20   22 1
    32   20   41 1
    33   21   23 1
    34   21   45 1
    35   32   48 1
    36   36   41 1
    37   37   38 1
    38   39   41 1
    39   41   48 1
    40   42   46 1
    41   42   47 1
@<TRIPOS>SUBSTRUCTURE
     1 DXF         1 TEMP              0 ****  ****    0 ROOT
