@<TRIPOS>MOLECULE
DXG
   21    20     1     0     0
SMALL
bcc


@<TRIPOS>ATOM
      1 O1B        -0.2090    0.9310    0.5250 o         1 DXG     -0.855800
      2 O1A         1.2410   -0.1690   -0.7710 o         1 DXG     -0.855800
      3 C1          0.8750    0.3120    0.3470 c         1 DXG      0.887600
      4 C2          1.8510    0.1240    1.5340 c3        1 DXG     -0.010900
      5 O2          3.1610    0.5010    1.1300 oh        1 DXG     -0.623800
      6 C3          1.8380   -1.3390    2.0150 c3        1 DXG      0.129100
      7 O3          2.3850   -2.1920    1.0120 oh        1 DXG     -0.638800
      8 C4          2.6600   -1.5340    3.2850 c3        1 DXG     -0.077400
      9 O5          0.9770   -2.8370    4.4390 oh        1 DXG     -0.643800
     10 C5          2.3340   -2.8330    4.0130 c3        1 DXG      0.026100
     11 C6          3.2770   -3.0360    5.2230 c         1 DXG      0.888600
     12 O6A         2.8050   -2.7660    6.3710 o         1 DXG     -0.858300
     13 O6B         4.4460   -3.4750    5.0370 o         1 DXG     -0.858300
     14 H21         1.5920    0.8150    2.3770 h1        1 DXG      0.060700
     15 HO21        3.3200    0.0310    0.2990 ho        1 DXG      0.406000
     16 H31         0.7700   -1.6440    2.2070 h1        1 DXG      0.044700
     17 HO31        1.9980   -1.9070    0.1700 ho        1 DXG      0.421000
     18 H41         3.7500   -1.5380    3.0250 hc        1 DXG      0.047200
     19 H42         2.4610   -0.6700    3.9690 hc        1 DXG      0.047200
     20 H51         2.4250   -3.6960    3.3010 h1        1 DXG      0.055700
     21 HO51        0.9760   -2.5090    5.3510 ho        1 DXG      0.409000
@<TRIPOS>BOND
     1    1    3 1   
     2    2    3 1   
     3    3    4 1   
     4    4    5 1   
     5    4    6 1   
     6    4   14 1   
     7    5   15 1   
     8    6    7 1   
     9    6    8 1   
    10    6   16 1   
    11    7   17 1   
    12    8   10 1   
    13    8   18 1   
    14    8   19 1   
    15    9   10 1   
    16    9   21 1   
    17   10   11 1   
    18   10   20 1   
    19   11   12 1   
    20   11   13 1   
@<TRIPOS>SUBSTRUCTURE
     1 DXG         1 TEMP              0 ****  ****    0 ROOT
