@<TRIPOS>MOLECULE
molecule
   21    20     1     0     0
SMALL
bcc


@<TRIPOS>ATOM
      1 O1B          0.0000     0.0000     0.0000 o          1 DXG      -0.863300
      2 O1A          1.9130    -0.0000    -1.1050 o          1 DXG      -0.863300
      3 C1           1.2750     0.0000     0.0000 c          1 DXG       0.873600
      4 C2           2.0280     0.0000     1.3050 c3         1 DXG       0.033100
      5 O2           3.4290     0.1180     1.0460 oh         1 DXG      -0.586800
      6 C3           1.7550    -1.3070     2.0510 c3         1 DXG       0.165100
      7 O3           2.0790    -2.4140     1.2080 oh         1 DXG      -0.594800
      8 C4           2.6160    -1.3610     3.3150 c3         1 DXG      -0.061400
      9 O5           0.9060    -2.4990     4.5900 oh         1 DXG      -0.618800
     10 C5           2.2530    -2.6080     4.1260 c3         1 DXG       0.012100
     11 C6           3.1830    -2.7280     5.3060 c          1 DXG       0.901600
     12 O6A          2.7440    -2.6290     6.4400 o          1 DXG      -0.856800
     13 O6B          4.3730    -2.9230     5.1280 o          1 DXG      -0.856800
     14 H21          1.7010     0.8370     1.9100 h1         1 DXG       0.010700
     15 HO21         3.6580     1.0290     0.9680 ho         1 DXG       0.366000
     16 H31          0.7080    -1.3550     2.3250 h1         1 DXG       0.049700
     17 HO31         1.2870    -2.8640     0.9620 ho         1 DXG       0.380000
     18 H41          2.4350    -0.4760     3.9140 hc         1 DXG       0.058700
     19 H42          3.6620    -1.4020     3.0390 hc         1 DXG       0.058700
     20 H51          2.3490    -3.4870     3.4990 h1         1 DXG       0.019700
     21 HO51         0.5850    -3.3540     4.8270 ho         1 DXG       0.373000
@<TRIPOS>BOND
     1     1     3 1
     2     2     3 1
     3     3     4 1
     4     4     5 1
     5     4     6 1
     6     4    14 1
     7     5    15 1
     8     6     7 1
     9     6     8 1
    10     6    16 1
    11     7    17 1
    12     8    10 1
    13     8    18 1
    14     8    19 1
    15     9    10 1
    16     9    21 1
    17    10    11 1
    18    10    20 1
    19    11    12 1
    20    11    13 1
@<TRIPOS>SUBSTRUCTURE
     1 DXG         1 TEMP              0 ****  ****    0 ROOT
