@<TRIPOS>MOLECULE
DXH
   57    61     1     0     0
SMALL
bcc


@<TRIPOS>ATOM
      1 C01          0.0000     0.0000     0.0000 c3         1 DXH       0.059200
      2 C02          1.5070     0.0000     0.0000 ca         1 DXH      -0.102300
      3 C03          2.1990     0.0000     1.2050 ca         1 DXH      -0.013400
      4 C04          3.5860    -0.0000     1.2080 ca         1 DXH      -0.057000
      5 C05          4.2810    -0.0010    -0.0010 ca         1 DXH      -0.150600
      6 C06          3.5750    -0.0000    -1.2060 ca         1 DXH      -0.100000
      7 C07          2.1960    -0.0060    -1.1980 ca         1 DXH      -0.085000
      8 C08          5.7590    -0.0000    -0.0070 c          1 DXH       0.589700
      9 O09          6.3710    -0.0930     1.0400 o          1 DXH      -0.635100
     10 N10          6.4290     0.1040    -1.1720 ns         1 DXH      -0.038100
     11 C11          7.8230     0.0050    -1.1890 ca         1 DXH      -0.093400
     12 C12          8.5690     0.5140    -0.1320 ca         1 DXH      -0.075000
     13 C13          9.9470     0.4150    -0.1510 ca         1 DXH      -0.087000
     14 C14         10.5830    -0.1890    -1.2200 ca         1 DXH      -0.061000
     15 C15          9.8440    -0.6950    -2.2730 ca         1 DXH      -0.194300
     16 C16          8.4660    -0.6050    -2.2580 ca         1 DXH      -0.073000
     17 C17         10.5430    -1.3520    -3.4350 c3         1 DXH       0.640200
     18 F18         11.9250    -1.3290    -3.2230 f          1 DXH      -0.208300
     19 F19         10.1100    -2.6780    -3.5510 f          1 DXH      -0.208300
     20 F20         10.2410    -0.6590    -4.6130 f          1 DXH      -0.208300
     21 N21          1.4980     0.0010     2.4150 nu         1 DXH      -0.278300
     22 C22          2.0910     0.5050     3.5580 ca         1 DXH       0.600200
     23 N23          3.2740     1.1020     3.5010 nb         1 DXH      -0.727000
     24 C24          3.8510     1.5890     4.5960 cp         1 DXH       0.751500
     25 N25          3.2880     1.5080     5.7900 nb         1 DXH      -0.675000
     26 C26          2.1020     0.9260     5.9420 ca         1 DXH       0.346800
     27 C27          1.4500     0.4000     4.8080 ca         1 DXH      -0.571500
     28 C28          0.2290    -0.1500     5.2530 cc         1 DXH       0.465800
     29 N29          0.1410     0.0240     6.5400 nd         1 DXH      -0.633100
     30 N30          1.2800     0.6910     7.0060 na         1 DXH       0.384200
     31 C31          1.5500     1.0650     8.3970 c3         1 DXH       0.032600
     32 C32          5.1750     2.2460     4.4730 cp         1 DXH      -0.289800
     33 C33          5.8630     2.6700     5.6080 ca         1 DXH       0.445200
     34 N34          7.0390     3.2530     5.5000 nb         1 DXH      -0.599000
     35 C35          7.6080     3.4600     4.3290 ca         1 DXH       0.420200
     36 C36          6.9900     3.0690     3.1560 ca         1 DXH      -0.239300
     37 C37          5.7550     2.4460     3.2170 ca         1 DXH      -0.018000
     38 H1          -0.3610     0.8560     0.5580 hc         1 DXH       0.011367
     39 H2          -0.3610    -0.9110     0.4620 hc         1 DXH       0.011367
     40 H3          -0.3610     0.0550    -1.0200 hc         1 DXH       0.011367
     41 H4           4.1270    -0.0010     2.1470 ha         1 DXH       0.178000
     42 H5           4.1110    -0.0030    -2.1480 ha         1 DXH       0.101000
     43 H6           1.6510    -0.0050    -2.1340 ha         1 DXH       0.110000
     44 H7           5.9300     0.2810    -2.0220 hn         1 DXH       0.177500
     45 H8           8.0710     0.9870     0.7050 ha         1 DXH       0.149000
     46 H9          10.5290     0.8110     0.6720 ha         1 DXH       0.112000
     47 H10         11.6640    -0.2630    -1.2340 ha         1 DXH       0.121000
     48 H11          7.8870    -1.0020    -3.0830 ha         1 DXH       0.116000
     49 H12          0.5820    -0.4000     2.4620 hn         1 DXH       0.293800
     50 H13         -0.5100    -0.6380     4.6290 h4         1 DXH       0.006800
     51 H14          2.4520     0.5700     8.7360 h1         1 DXH       0.024033
     52 H15          1.6800     2.1390     8.4630 h1         1 DXH       0.024033
     53 H16          0.7160     0.7640     9.0200 h1         1 DXH       0.024033
     54 H17          5.4270     2.5180     6.5880 h4         1 DXH      -0.001900
     55 H18          8.5760     3.9450     4.2850 h4         1 DXH      -0.024900
     56 H19          7.4690     3.2430     2.2000 ha         1 DXH       0.111000
     57 H20          5.2470     2.1290     2.3140 ha         1 DXH       0.132000
@<TRIPOS>BOND
     1     1     2 1   
     2     1    38 1   
     3     1    39 1   
     4     1    40 1   
     5     2     3 ar  
     6     2     7 ar  
     7     3     4 ar  
     8     3    21 1   
     9     4     5 ar  
    10     4    41 1   
    11     5     6 ar  
    12     5     8 1   
    13     6     7 ar  
    14     6    42 1   
    15     7    43 1   
    16     8     9 2   
    17     8    10 1   
    18    10    11 1   
    19    10    44 1   
    20    11    12 ar  
    21    11    16 ar  
    22    12    13 ar  
    23    12    45 1   
    24    13    14 ar  
    25    13    46 1   
    26    14    15 ar  
    27    14    47 1   
    28    15    16 ar  
    29    15    17 1   
    30    16    48 1   
    31    17    18 1   
    32    17    19 1   
    33    17    20 1   
    34    21    22 1   
    35    21    49 1   
    36    22    23 ar  
    37    22    27 ar  
    38    23    24 ar  
    39    24    25 ar  
    40    24    32 1   
    41    25    26 ar  
    42    26    27 ar  
    43    26    30 1   
    44    27    28 1   
    45    28    29 2   
    46    28    50 1   
    47    29    30 1   
    48    30    31 1   
    49    31    51 1   
    50    31    52 1   
    51    31    53 1   
    52    32    33 ar  
    53    32    37 ar  
    54    33    34 ar  
    55    33    54 1   
    56    34    35 ar  
    57    35    36 ar  
    58    35    55 1   
    59    36    37 ar  
    60    36    56 1   
    61    37    57 1   
@<TRIPOS>SUBSTRUCTURE
     1 DXH         1 TEMP              0 ****  ****    0 ROOT
