@<TRIPOS>MOLECULE
molecule
   34    33     1     0     0
SMALL
bcc


@<TRIPOS>ATOM
      1 C10          0.0000     0.0000     0.0000 ce         1 DXJ      -0.028000
      2 C13         -2.8410     0.0060     2.4800 c3         1 DXJ      -0.192100
      3 C01          5.5590    -3.1130     0.4930 c3         1 DXJ      -0.095900
      4 C02          6.3080    -2.1740    -0.4180 c2         1 DXJ       0.043600
      5 C03          5.6540    -1.4380    -1.2820 c2         1 DXJ      -0.512200
      6 C04          7.8100    -2.0810    -0.3350 c3         1 DXJ      -0.095900
      7 C05          4.1460    -1.4370    -1.2820 c3         1 DXJ      -0.081200
      8 C06          3.6370    -0.0000    -1.1560 c3         1 DXJ      -0.007200
      9 C07          2.1290    -0.0000    -1.1560 c2         1 DXJ      -0.088400
     10 C08          1.4620     0.0000     0.0000 ce         1 DXJ      -0.183000
     11 C09          1.3760     0.0010    -2.4620 c3         1 DXJ      -0.064900
     12 C11         -0.6790     0.0000     1.1750 cf         1 DXJ      -0.289200
     13 C12         -2.0870     0.0060     1.1750 c          1 DXJ       0.567300
     14 O14         -2.6940     0.0120     0.1240 o          1 DXJ      -0.550100
     15 H1          -0.5410     0.0050    -0.9380 ha         1 DXJ       0.153000
     16 H2          -2.5820    -0.8810     3.0470 hc         1 DXJ       0.058367
     17 H3          -3.9060     0.0100     2.2820 hc         1 DXJ       0.058367
     18 H4          -2.5760     0.8880     3.0500 hc         1 DXJ       0.058367
     19 H5           6.2660    -3.7310     1.0340 hc         1 DXJ       0.053033
     20 H6           4.9050    -3.7440    -0.0970 hc         1 DXJ       0.053033
     21 H7           4.9690    -2.5390     1.1970 hc         1 DXJ       0.053033
     22 H8           5.0810    -2.2090    -1.7830 ha         1 DXJ       0.322000
     23 H9           8.1790    -1.4650    -1.1450 hc         1 DXJ       0.053033
     24 H10          8.2380    -3.0740    -0.4120 hc         1 DXJ       0.053033
     25 H11          8.0920    -1.6390     0.6130 hc         1 DXJ       0.053033
     26 H12          3.7840    -2.0230    -0.4460 hc         1 DXJ       0.032200
     27 H13          3.7850    -1.8680    -2.2080 hc         1 DXJ       0.032200
     28 H14          3.9980     0.5850    -1.9930 hc         1 DXJ       0.065200
     29 H15          3.9980     0.4310    -0.2310 hc         1 DXJ       0.065200
     30 H16          2.0030    -0.0000     0.9380 ha         1 DXJ       0.134000
     31 H17          2.0790     0.0480    -3.2840 hc         1 DXJ       0.049700
     32 H18          0.7190     0.8610    -2.4990 hc         1 DXJ       0.049700
     33 H19          0.7890    -0.9060    -2.5400 hc         1 DXJ       0.049700
     34 H20         -0.1380     0.0000     2.1140 ha         1 DXJ       0.132000
@<TRIPOS>BOND
     1     6     4 1
     2     3     4 1
     3     4     5 2
     4     5     7 1
     5     7     8 1
     6    11     9 1
     7     8     9 1
     8     9    10 2
     9    10     1 1
    10     1    12 2
    11    14    13 2
    12    12    13 1
    13    13     2 1
    14     1    15 1
    15     2    16 1
    16     2    17 1
    17     2    18 1
    18     3    19 1
    19     3    20 1
    20     3    21 1
    21     5    22 1
    22     6    23 1
    23     6    24 1
    24     6    25 1
    25     7    26 1
    26     7    27 1
    27     8    28 1
    28     8    29 1
    29    10    30 1
    30    11    31 1
    31    11    32 1
    32    11    33 1
    33    12    34 1
@<TRIPOS>SUBSTRUCTURE
     1 DXJ         1 TEMP              0 ****  ****    0 ROOT
