@<TRIPOS>MOLECULE
molecule
   27    29     1     0     0
SMALL
bcc


@<TRIPOS>ATOM
      1 CAC          0.0000     0.0000     0.0000 ca         1 DXK      -0.048000
      2 CAE          1.3850     0.0000     0.0000 ca         1 DXK      -0.271300
      3 CAF          2.0610     0.0000     1.2060 ca         1 DXK       0.434200
      4 NAD          1.4090    -0.0000     2.3520 nb         1 DXK      -0.701000
      5 CAB          0.0930    -0.0010     2.4030 ca         1 DXK       0.462200
      6 CAA         -0.6630     0.0050     1.2320 cp         1 DXK      -0.271800
      7 C2          -2.1430     0.0050     1.2900 cp         1 DXK       0.798500
      8 N1          -2.8300     0.0000     0.1510 nb         1 DXK      -0.792000
      9 N3          -2.7340     0.0050     2.4740 nb         1 DXK      -0.772000
     10 C4          -4.0610     0.0050     2.5690 ca         1 DXK       0.512800
     11 NAM         -4.9460     0.0040     3.6070 na         1 DXK      -0.029800
     12 CAQ         -4.5990     0.0050     5.0300 c3         1 DXK       0.073600
     13 NAN         -6.2430     0.0030     3.0780 nc         1 DXK      -0.498100
     14 CAO         -6.1870     0.0040     1.7760 cd         1 DXK       0.405800
     15 C5          -4.8300     0.0040     1.3870 ca         1 DXK      -0.509500
     16 C6          -4.1560    -0.0010     0.1500 ca         1 DXK       0.792200
     17 NAP         -4.8610    -0.0090    -1.0390 nv         1 DXK      -1.084500
     18 H1          -0.5560     0.0020    -0.9300 ha         1 DXK       0.162000
     19 H2           1.9320    -0.0020    -0.9350 ha         1 DXK       0.141000
     20 H3           3.1450     0.0000     1.2090 h4         1 DXK       0.023100
     21 H4          -0.4070     0.0010     3.3640 h4         1 DXK       0.046100
     22 H5          -4.0160    -0.8780     5.2610 h1         1 DXK       0.058033
     23 H6          -4.0180     0.8910     5.2600 h1         1 DXK       0.058033
     24 H7          -5.5060     0.0050     5.6230 h1         1 DXK       0.058033
     25 H8          -7.0380     0.0040     1.1060 h4         1 DXK       0.064800
     26 H9          -5.0990    -0.8780    -1.4730 hn         1 DXK       0.444800
     27 H10         -5.1010     0.8550    -1.4830 hn         1 DXK       0.444800
@<TRIPOS>BOND
     1    14    13 2
     2    14    15 1
     3    13    11 1
     4    17    16 1
     5    15    16 ar
     6    15    10 ar
     7    16     8 ar
     8    11    10 1
     9    11    12 1
    10    10     9 ar
    11     8     7 ar
    12     9     7 ar
    13     7     6 1
    14     6     1 ar
    15     6     5 ar
    16     1     2 ar
    17     5     4 ar
    18     2     3 ar
    19     4     3 ar
    20     1    18 1
    21     2    19 1
    22     3    20 1
    23     5    21 1
    24    12    22 1
    25    12    23 1
    26    12    24 1
    27    14    25 1
    28    17    26 1
    29    17    27 1
@<TRIPOS>SUBSTRUCTURE
     1 DXK         1 TEMP              0 ****  ****    0 ROOT
