@<TRIPOS>MOLECULE
DXK
   27    29     1     0     0
SMALL
bcc


@<TRIPOS>ATOM
      1 CAC          0.0000     0.0000     0.0000 ca         1 DXK      -0.027000
      2 CAE          1.3850     0.0000     0.0000 ca         1 DXK      -0.238300
      3 CAF          2.0610     0.0000     1.2060 ca         1 DXK       0.419200
      4 NAD          1.4090    -0.0000     2.3520 nb         1 DXK      -0.596000
      5 CAB          0.0930    -0.0010     2.4030 ca         1 DXK       0.441200
      6 CAA         -0.6630     0.0050     1.2320 cp         1 DXK      -0.286800
      7 C2          -2.1430     0.0050     1.2900 cp         1 DXK       0.709500
      8 N1          -2.8300     0.0000     0.1510 nb         1 DXK      -0.672000
      9 N3          -2.7340     0.0050     2.4740 nb         1 DXK      -0.632000
     10 C4          -4.0610     0.0050     2.5690 ca         1 DXK       0.310800
     11 NAM         -4.9460     0.0040     3.6070 na         1 DXK       0.379200
     12 CAQ         -4.5990     0.0050     5.0300 c3         1 DXK       0.032600
     13 NAN         -6.2430     0.0030     3.0780 nc         1 DXK      -0.628100
     14 CAO         -6.1870     0.0040     1.7760 cd         1 DXK       0.470800
     15 C5          -4.8300     0.0040     1.3870 ca         1 DXK      -0.521500
     16 C6          -4.1560    -0.0010     0.1500 ca         1 DXK       0.625200
     17 NAP         -4.8610    -0.0090    -1.0390 nv         1 DXK      -0.658500
     18 H1          -0.5560     0.0020    -0.9300 ha         1 DXK       0.128000
     19 H2           1.9320    -0.0020    -0.9350 ha         1 DXK       0.114000
     20 H3           3.1450     0.0000     1.2090 h4         1 DXK      -0.022900
     21 H4          -0.4070     0.0010     3.3640 h4         1 DXK      -0.001900
     22 H5          -4.0160    -0.8780     5.2610 h1         1 DXK       0.023700
     23 H6          -4.0180     0.8910     5.2600 h1         1 DXK       0.023700
     24 H7          -5.5060     0.0050     5.6230 h1         1 DXK       0.023700
     25 H8          -7.0380     0.0040     1.1060 h4         1 DXK       0.016800
     26 H9          -5.0990    -0.8780    -1.4730 hn         1 DXK       0.283800
     27 H10         -5.1010     0.8550    -1.4830 hn         1 DXK       0.283800
@<TRIPOS>BOND
     1     1     2 ar  
     2     1     6 ar  
     3     1    18 1   
     4     2     3 ar  
     5     2    19 1   
     6     3     4 ar  
     7     3    20 1   
     8     4     5 ar  
     9     5     6 ar  
    10     5    21 1   
    11     6     7 1   
    12     7     8 ar  
    13     7     9 ar  
    14     8    16 ar  
    15     9    10 ar  
    16    10    11 1   
    17    10    15 ar  
    18    11    12 1   
    19    11    13 1   
    20    12    22 1   
    21    12    23 1   
    22    12    24 1   
    23    13    14 2   
    24    14    15 1   
    25    14    25 1   
    26    15    16 ar  
    27    16    17 1   
    28    17    26 1   
    29    17    27 1   
@<TRIPOS>SUBSTRUCTURE
     1 DXK         1 TEMP              0 ****  ****    0 ROOT
