@<TRIPOS>MOLECULE
molecule
   18    17     1     0     0
SMALL
bcc


@<TRIPOS>ATOM
      1 OAA          0.0000     0.0000     0.0000 o          1 DXL      -0.862300
      2 OAB          3.4960     0.1170     1.0480 oh         1 DXL      -0.587800
      3 OAC          3.9870    -1.1890     3.1190 oh         1 DXL      -0.587800
      4 CAF          1.3420     0.0000     0.0000 c          1 DXL       0.868600
      5 CAG          2.0950     0.0000     1.3060 c3         1 DXL       0.027100
      6 CAH          1.8220    -1.3070     2.0530 c3         1 DXL       0.201100
      7 CAI          2.5860    -1.3060     3.3770 c3         1 DXL       0.027100
      8 CAJ          2.3180    -2.5940     4.1130 c          1 DXL       0.868600
      9 OAK          3.2160    -3.3770     4.3090 o          1 DXL      -0.862300
     10 OAL          0.4210    -1.4240     2.3110 oh         1 DXL      -0.561800
     11 HAG          1.7680     0.8370     1.9110 h1         1 DXL       0.014700
     12 HAH          2.1480    -2.1440     1.4470 h1         1 DXL       0.042700
     13 HAI          2.2600    -0.4700     3.9830 h1         1 DXL       0.014700
     14 HOAL         0.0890    -2.2040     1.8980 ho         1 DXL       0.396000
     15 HOAB         3.6990     1.0080     0.8160 ho         1 DXL       0.364000
     16 OAD          1.0790    -2.8700     4.5510 o          1 DXL      -0.862300
     17 OAE          1.9460    -0.0010    -1.0460 o          1 DXL      -0.862300
     18 HOAC         4.4340    -0.9450     3.9130 ho         1 DXL       0.364000
@<TRIPOS>BOND
     1     4     1 1
     2     5     2 1
     3     2    15 1
     4     7     3 1
     5     3    18 1
     6    16     8 1
     7    17     4 1
     8     4     5 1
     9     6     5 1
    10     5    11 1
    11     7     6 1
    12     6    10 1
    13     6    12 1
    14     8     7 1
    15     7    13 1
    16     9     8 1
    17    10    14 1
@<TRIPOS>SUBSTRUCTURE
     1 DXL         1 TEMP              0 ****  ****    0 ROOT
