@<TRIPOS>MOLECULE
DXL
   18    16     1     0     0
SMALL
bcc


@<TRIPOS>ATOM
      1 OAA       -57.6950  123.0490 -236.9650 o         1 DXL     -0.573000
      2 OAB       -57.2720  122.9980 -233.8510 oh        1 DXL     -0.313000
      3 OAC        50.7330  -99.2760  190.9410 oh        1 DXL     -0.347000
      4 CAF       -56.6970  122.9490 -236.2000 c2        1 DXL      0.344000
      5 CAG       -56.8740  122.1280 -234.8970 c3        1 DXL     -0.097000
      6 CAH        49.7640 -101.0610  192.1680 c1        1 DXL     -0.046000
      7 CAI        49.5220  -99.7500  191.5030 c3        1 DXL     -0.133000
      8 CAJ        48.9640  -98.7420  192.5760 c2        1 DXL      0.337000
      9 OAK        49.7520  -97.8190  192.9180 o         1 DXL     -0.549500
     10 OAL        48.7490 -101.9050  192.0090 oh        1 DXL     -0.238000
     11 HAG       -57.6580  121.3400 -235.0490 h1        1 DXL      0.032000
     12 HAH       -55.9030  121.6340 -234.6260 h1        1 DXL      0.032000
     13 HAI        48.7850  -99.7930  190.6540 h1        1 DXL      0.089000
     14 HOAL       48.9580 -102.6890  192.5410 ho        1 DXL      0.215000
     15 HOAB      -57.3670  122.4420 -233.0690 ho        1 DXL      0.148000
     16 OAD        47.7890  -98.9090  192.9860 o         1 DXL     -0.549500
     17 OAE       -55.5490  123.4110 -236.4460 o         1 DXL     -0.573000
     18 HOAC       51.1180  -98.6620  191.5890 ho        1 DXL      0.223000
@<TRIPOS>BOND
     1    1    4 1   
     2    2    5 1   
     3    2   15 1   
     4    3    7 1   
     5    3   18 1   
     6    4    5 1   
     7    4   17 1   
     8    5   11 1   
     9    5   12 1   
    10    6    7 1   
    11    6   10 1   
    12    7    8 1   
    13    7   13 1   
    14    8    9 1   
    15    8   16 1   
    16   10   14 1   
@<TRIPOS>SUBSTRUCTURE
     1 DXL         1 TEMP              0 ****  ****    0 ROOT
