@<TRIPOS>MOLECULE
DXM
   60    64     1     0     0
SMALL
bcc


@<TRIPOS>ATOM
      1 C4           0.0000     0.0000     0.0000 cc         1 DXM      -0.239600
      2 C5           1.4090     0.0000     0.0000 cc         1 DXM       0.452200
      3 C6           2.1700    -0.0000     3.6100 c3         1 DXM       0.091300
      4 N1          -4.3580    -2.2500     2.7400 na         1 DXM       0.498400
      5 C7           0.0580    -0.0070     2.4000 c          1 DXM       0.562700
      6 C8           2.1460     0.0010    -1.2880 ca         1 DXM      -0.151900
      7 N2          -4.0640    -1.0690     2.0460 nc         1 DXM      -0.708800
      8 C9           3.5410    -0.0050    -1.2950 ca         1 DXM       0.142900
      9 C10          4.2240    -0.0050    -2.5030 ca         1 DXM      -0.149400
     10 C11          6.2870    -0.8600    -3.3250 c          1 DXM       0.624700
     11 C12          7.7480    -0.9540    -3.2510 cc         1 DXM      -0.094700
     12 N3          -2.0700     0.0060     1.2050 nu         1 DXM      -0.284700
     13 C13          8.5270    -1.7710    -4.0120 cd         1 DXM      -0.022000
     14 C14          9.8800    -1.6690    -3.7460 cd         1 DXM      -0.136300
     15 C15         10.1830    -0.7750    -2.7780 cc         1 DXM       0.015600
     16 N4           2.0760     0.0000     1.1320 nd         1 DXM      -0.520300
     17 C1          -5.6910    -2.6980     3.1510 c3         1 DXM       0.023600
     18 C16         11.5920    -0.4760    -2.3000 c3         1 DXM       0.074900
     19 C17         12.5190    -1.6020    -2.7650 c3         1 DXM      -0.030400
     20 C18         12.3030    -1.8390    -4.2630 c3         1 DXM      -0.029400
     21 C19         10.9350    -2.4890    -4.4770 c3         1 DXM       0.057900
     22 C2          -2.7660    -1.0170     1.8580 cd         1 DXM       0.485200
     23 C20          3.5160     0.0010    -3.7010 ca         1 DXM       0.165900
     24 C21          2.1320     0.0070    -3.6910 ca         1 DXM      -0.134000
     25 C22          1.4460     0.0010    -2.4930 ca         1 DXM      -0.054000
     26 C23         -2.1980    -2.1680     2.4270 cd         1 DXM      -0.343300
     27 C24         -3.2000    -2.9080     2.9560 cc         1 DXM      -0.217600
     28 C25         -3.0490    -4.2290     3.6640 c3         1 DXM       0.098200
     29 C3          -0.6760    -0.0010     1.1870 cd         1 DXM      -0.053200
     30 F1           4.2250    -0.0110    -0.1300 f          1 DXM      -0.109900
     31 F2           4.1820     0.0030    -4.8760 f          1 DXM      -0.107900
     32 N5           1.4050    -0.0010     2.3610 n          1 DXM       0.173200
     33 N6           5.6250    -0.0100    -2.5170 ns         1 DXM      -0.030100
     34 O1          -0.5260    -0.0070     3.4710 o          1 DXM      -0.670500
     35 O2           5.6740    -1.5500    -4.1180 o          1 DXM      -0.618100
     36 S1           8.7750    -0.0250    -2.1720 ss         1 DXM      -0.228800
     37 H1          -0.5440     0.0050    -0.9370 ha         1 DXM       0.131000
     38 H63          1.8600     0.8370     4.2230 h1         1 DXM       0.024367
     39 H62          3.2270     0.0880     3.3860 h1         1 DXM       0.024367
     40 H61          1.9900    -0.9250     4.1440 h1         1 DXM       0.024367
     41 H2           8.1230    -2.4420    -4.7600 ha         1 DXM       0.140000
     42 H11         -5.9120    -3.6500     2.6850 h1         1 DXM       0.019033
     43 H12         -5.7190    -2.8080     4.2280 h1         1 DXM       0.019033
     44 H13         -6.4280    -1.9650     2.8440 h1         1 DXM       0.019033
     45 H162        11.6040    -0.4210    -1.2180 hc         1 DXM       0.025200
     46 H161        11.9260     0.4650    -2.7210 hc         1 DXM       0.025200
     47 H172        12.2890    -2.5090    -2.2190 hc         1 DXM       0.019200
     48 H171        13.5500    -1.3180    -2.5890 hc         1 DXM       0.019200
     49 H182        13.0630    -2.5280    -4.6100 hc         1 DXM       0.022700
     50 H181        12.3010    -0.8760    -4.7600 hc         1 DXM       0.022700
     51 H192        10.7070    -2.5120    -5.5360 hc         1 DXM       0.022700
     52 H191        10.9480    -3.4980    -4.0820 hc         1 DXM       0.022700
     53 H21          1.5850     0.0100    -4.6260 ha         1 DXM       0.127000
     54 H22          0.3630     0.0050    -2.4890 ha         1 DXM       0.119000
     55 H23         -1.1450    -2.4220     2.4370 ha         1 DXM       0.139000
     56 H253        -3.6670    -4.9730     3.1760 hc         1 DXM       0.010033
     57 H252        -2.0120    -4.5420     3.6290 hc         1 DXM       0.010033
     58 H251        -3.3590    -4.1230     4.6970 hc         1 DXM       0.010033
     59 H4           6.1310     0.5340    -1.8470 hn         1 DXM       0.184500
     60 H5          -2.5730     0.7550     0.7720 hn         1 DXM       0.289800
@<TRIPOS>BOND
     1     1     2 1   
     2     1    29 2   
     3     1    37 1   
     4     2     6 1   
     5     2    16 2   
     6     3    32 1   
     7     3    38 1   
     8     3    39 1   
     9     3    40 1   
    10     4     7 1   
    11     4    17 1   
    12     4    27 1   
    13     5    29 1   
    14     5    32 1   
    15     5    34 2   
    16     6     8 ar  
    17     6    25 ar  
    18     7    22 2   
    19     8     9 ar  
    20     8    30 1   
    21     9    23 ar  
    22     9    33 1   
    23    10    11 1   
    24    10    33 1   
    25    10    35 2   
    26    11    13 2   
    27    11    36 1   
    28    12    22 1   
    29    12    29 1   
    30    12    60 1   
    31    13    14 1   
    32    13    41 1   
    33    14    15 2   
    34    14    21 1   
    35    15    18 1   
    36    15    36 1   
    37    16    32 1   
    38    17    42 1   
    39    17    43 1   
    40    17    44 1   
    41    18    19 1   
    42    18    45 1   
    43    18    46 1   
    44    19    20 1   
    45    19    47 1   
    46    19    48 1   
    47    20    21 1   
    48    20    49 1   
    49    20    50 1   
    50    21    51 1   
    51    21    52 1   
    52    22    26 1   
    53    23    24 ar  
    54    23    31 1   
    55    24    25 ar  
    56    24    53 1   
    57    25    54 1   
    58    26    27 2   
    59    26    55 1   
    60    27    28 1   
    61    28    56 1   
    62    28    57 1   
    63    28    58 1   
    64    33    59 1   
@<TRIPOS>SUBSTRUCTURE
     1 DXM         1 TEMP              0 ****  ****    0 ROOT
