@<TRIPOS>MOLECULE
molecule
   43    45     1     0     0
SMALL
bcc


@<TRIPOS>ATOM
      1 C11          0.0000     0.0000     0.0000 c3         1 DXO      -0.046800
      2 C10          1.5070     0.0000     0.0000 ca         1 DXO      -0.030800
      3 C9           2.1980     0.0000     1.1950 ca         1 DXO      -0.145000
      4 C8           3.5810    -0.0010     1.1960 ca         1 DXO      -0.102000
      5 C7           4.2790     0.0010     0.0020 ca         1 DXO      -0.145000
      6 C5           3.5990     0.0010    -1.1980 ca         1 DXO      -0.030800
      7 C6           4.3610     0.0020    -2.4980 c3         1 DXO      -0.046800
      8 C4           2.2050    -0.0050    -1.2060 cp         1 DXO      -0.147500
      9 C3           1.4680    -0.0110    -2.4920 cp         1 DXO       0.815500
     10 N2           1.8140    -0.8630    -3.4530 nb         1 DXO      -0.823000
     11 C1           1.1520    -0.8690    -4.6070 ca         1 DXO       0.839300
     12 S            1.6090    -1.9980    -5.8790 ss         1 DXO      -0.243400
     13 C            2.9820    -2.8520    -5.0640 c3         1 DXO      -0.025000
     14 N1           0.4580     0.8320    -2.6840 nb         1 DXO      -0.806000
     15 C2          -0.2040     0.8270    -3.8390 ca         1 DXO       0.912900
     16 N            0.1450    -0.0210    -4.8000 nb         1 DXO      -0.819000
     17 N3          -1.2520     1.7010    -4.0370 nh         1 DXO      -0.681300
     18 C15         -1.8380     1.5270    -5.3730 c3         1 DXO       0.176300
     19 C14         -2.9420     2.5660    -5.5830 c3         1 DXO       0.152300
     20 N4          -3.9640     2.4090    -4.5380 n7         1 DXO      -0.823200
     21 C13         -3.3780     2.5840    -3.2020 c3         1 DXO       0.152300
     22 C12         -2.2740     1.5450    -2.9920 c3         1 DXO       0.176300
     23 H111        -0.3610    -0.6750    -0.7670 hc         1 DXO       0.047700
     24 H112        -0.3610    -0.3270     0.9680 hc         1 DXO       0.047700
     25 H113        -0.3610     1.0010    -0.2010 hc         1 DXO       0.047700
     26 H9           1.6560    -0.0010     2.1330 ha         1 DXO       0.134000
     27 H8           4.1200    -0.0010     2.1360 ha         1 DXO       0.131000
     28 H7           5.3630    -0.0000     0.0090 ha         1 DXO       0.134000
     29 H61C         4.3880    -1.0030    -2.9020 hc         1 DXO       0.047700
     30 H62C         5.3730     0.3480    -2.3230 hc         1 DXO       0.047700
     31 H63C         3.8710     0.6620    -3.2040 hc         1 DXO       0.047700
     32 HC1          3.2840    -3.7030    -5.6630 h1         1 DXO       0.073367
     33 HC2          3.8170    -2.1710    -4.9560 h1         1 DXO       0.073367
     34 HC3          2.6650    -3.1930    -4.0860 h1         1 DXO       0.073367
     35 H151        -2.2590     0.5320    -5.4550 h1         1 DXO       0.062700
     36 H152        -1.0680     1.6630    -6.1230 h1         1 DXO       0.062700
     37 H121        -1.8210     1.6930    -2.0200 h1         1 DXO       0.062700
     38 H122        -2.6990     0.5500    -3.0500 h1         1 DXO       0.062700
     39 H141        -2.5160     3.5600    -5.5250 h1         1 DXO       0.043700
     40 H142        -3.3950     2.4170    -6.5550 h1         1 DXO       0.043700
     41 H4          -4.6880     3.0860    -4.6760 hn         1 DXO       0.356800
     42 H131        -4.1480     2.4480    -2.4520 h1         1 DXO       0.043700
     43 H132        -2.9570     3.5780    -3.1200 h1         1 DXO       0.043700
@<TRIPOS>BOND
     1     1     2 1
     2     2     3 ar
     3     2     8 ar
     4     3     4 ar
     5     4     5 ar
     6     5     6 ar
     7     6     7 1
     8     6     8 ar
     9     8     9 1
    10     9    10 ar
    11     9    14 ar
    12    10    11 ar
    13    11    12 1
    14    11    16 ar
    15    12    13 1
    16    14    15 ar
    17    15    16 ar
    18    15    17 1
    19    17    18 1
    20    17    22 1
    21    18    19 1
    22    19    20 1
    23    20    21 1
    24    21    22 1
    25     1    23 1
    26     1    24 1
    27     1    25 1
    28     3    26 1
    29     4    27 1
    30     5    28 1
    31     7    29 1
    32     7    30 1
    33     7    31 1
    34    13    32 1
    35    13    33 1
    36    13    34 1
    37    18    35 1
    38    18    36 1
    39    22    37 1
    40    22    38 1
    41    19    39 1
    42    19    40 1
    43    20    41 1
    44    21    42 1
    45    21    43 1
@<TRIPOS>SUBSTRUCTURE
     1 DXO         1 TEMP              0 ****  ****    0 ROOT
