@<TRIPOS>MOLECULE
DXO
   43    45     1     0     0
SMALL
bcc


@<TRIPOS>ATOM
      1 C11          0.0000     0.0000     0.0000 c3         1 DXO       0.052200
      2 C10          1.5070     0.0000     0.0000 ca         1 DXO      -0.035300
      3 C9           2.1980     0.0000     1.1950 ca         1 DXO      -0.122000
      4 C8           3.5810    -0.0010     1.1960 ca         1 DXO      -0.072000
      5 C7           4.2790     0.0010     0.0020 ca         1 DXO      -0.122000
      6 C5           3.5990     0.0010    -1.1980 ca         1 DXO      -0.035300
      7 C6           4.3610     0.0020    -2.4980 c3         1 DXO       0.052200
      8 C4           2.2050    -0.0050    -1.2060 cp         1 DXO      -0.168500
      9 C3           1.4680    -0.0110    -2.4920 cp         1 DXO       0.754500
     10 N2           1.8140    -0.8630    -3.4530 nb         1 DXO      -0.723000
     11 C1           1.1520    -0.8690    -4.6070 ca         1 DXO       0.799300
     12 S            1.6090    -1.9980    -5.8790 ss         1 DXO      -0.368400
     13 C            2.9820    -2.8520    -5.0640 c3         1 DXO       0.111000
     14 N1           0.4580     0.8320    -2.6840 nb         1 DXO      -0.697000
     15 C2          -0.2040     0.8270    -3.8390 ca         1 DXO       0.748900
     16 N            0.1450    -0.0210    -4.8000 nb         1 DXO      -0.699000
     17 N3          -1.2520     1.7010    -4.0370 nh         1 DXO      -0.436300
     18 C15         -1.8380     1.5270    -5.3730 c3         1 DXO       0.139800
     19 C14         -2.9420     2.5660    -5.5830 c3         1 DXO       0.143300
     20 N4          -3.9640     2.4090    -4.5380 n7         1 DXO      -0.585200
     21 C13         -3.3780     2.5840    -3.2020 c3         1 DXO       0.143300
     22 C12         -2.2740     1.5450    -2.9920 c3         1 DXO       0.139800
     23 H111        -0.3610    -0.6750    -0.7670 hc         1 DXO       0.013367
     24 H112        -0.3610    -0.3270     0.9680 hc         1 DXO       0.013367
     25 H113        -0.3610     1.0010    -0.2010 hc         1 DXO       0.013367
     26 H9           1.6560    -0.0010     2.1330 ha         1 DXO       0.109000
     27 H8           4.1200    -0.0010     2.1360 ha         1 DXO       0.101000
     28 H7           5.3630    -0.0000     0.0090 ha         1 DXO       0.109000
     29 H61C         4.3880    -1.0030    -2.9020 hc         1 DXO       0.013367
     30 H62C         5.3730     0.3480    -2.3230 hc         1 DXO       0.013367
     31 H63C         3.8710     0.6620    -3.2040 hc         1 DXO       0.013367
     32 HC1          3.2840    -3.7030    -5.6630 h1         1 DXO       0.042367
     33 HC2          3.8170    -2.1710    -4.9560 h1         1 DXO       0.042367
     34 HC3          2.6650    -3.1930    -4.0860 h1         1 DXO       0.042367
     35 H151        -2.2590     0.5320    -5.4550 h1         1 DXO       0.034700
     36 H152        -1.0680     1.6630    -6.1230 h1         1 DXO       0.034700
     37 H121        -1.8210     1.6930    -2.0200 h1         1 DXO       0.034700
     38 H122        -2.6990     0.5500    -3.0500 h1         1 DXO       0.034700
     39 H141        -2.5160     3.5600    -5.5250 h1         1 DXO       0.014200
     40 H142        -3.3950     2.4170    -6.5550 h1         1 DXO       0.014200
     41 H4          -4.6880     3.0860    -4.6760 hn         1 DXO       0.255800
     42 H131        -4.1480     2.4480    -2.4520 h1         1 DXO       0.014200
     43 H132        -2.9570     3.5780    -3.1200 h1         1 DXO       0.014200
@<TRIPOS>BOND
     1     1     2 1   
     2     1    23 1   
     3     1    24 1   
     4     1    25 1   
     5     2     3 ar  
     6     2     8 ar  
     7     3     4 ar  
     8     3    26 1   
     9     4     5 ar  
    10     4    27 1   
    11     5     6 ar  
    12     5    28 1   
    13     6     7 1   
    14     6     8 ar  
    15     7    29 1   
    16     7    30 1   
    17     7    31 1   
    18     8     9 1   
    19     9    10 ar  
    20     9    14 ar  
    21    10    11 ar  
    22    11    12 1   
    23    11    16 ar  
    24    12    13 1   
    25    13    32 1   
    26    13    33 1   
    27    13    34 1   
    28    14    15 ar  
    29    15    16 ar  
    30    15    17 1   
    31    17    18 1   
    32    17    22 1   
    33    18    19 1   
    34    18    35 1   
    35    18    36 1   
    36    19    20 1   
    37    19    39 1   
    38    19    40 1   
    39    20    21 1   
    40    20    41 1   
    41    21    22 1   
    42    21    42 1   
    43    21    43 1   
    44    22    37 1   
    45    22    38 1   
@<TRIPOS>SUBSTRUCTURE
     1 DXO         1 TEMP              0 ****  ****    0 ROOT
