@<TRIPOS>MOLECULE
DXP
   22    21     1     0     0
SMALL
bcc


@<TRIPOS>ATOM
      1 C1          0.1790    0.3610    0.7010 c3        1 DXP     -0.204100
      2 C2          1.4070   -0.3810    0.3030 c         1 DXP      0.561100
      3 C3          2.6490   -0.1790    1.1530 c3        1 DXP      0.051100
      4 C4          2.7310    1.2240    1.7680 c3        1 DXP      0.084100
      5 C5          3.9200    1.3540    2.7580 c3        1 DXP      0.214400
      6 O2          1.4240   -1.1540   -0.6700 o         1 DXP     -0.624100
      7 O3          3.8250   -0.4580    0.4090 oh        1 DXP     -0.578800
      8 O4          2.8110    2.1880    0.7280 oh        1 DXP     -0.657800
      9 O5          4.0050    2.6440    3.2070 os        1 DXP     -0.566200
     10 P           3.3320    2.8420    4.8200 p5        1 DXP      1.312900
     11 O2P         3.4520    4.3210    5.0460 o         1 DXP     -0.930500
     12 O1P         1.9530    2.2950    4.5430 o         1 DXP     -0.930500
     13 O3P         4.2190    1.9430    5.6350 o         1 DXP     -0.930500
     14 HC11       -0.7010    0.0480    0.0900 hc        1 DXP      0.071033
     15 HC12        0.3700    1.4580    0.5540 hc        1 DXP      0.071033
     16 HC13       -0.0370    0.1960    1.7860 hc        1 DXP      0.071033
     17 HC3         2.5840   -0.9160    2.0090 h1        1 DXP      0.054700
     18 HC4         1.7820    1.4150    2.3540 h1        1 DXP      0.102700
     19 H51         3.7560    0.6310    3.6050 h1        1 DXP      0.001700
     20 H52         4.8590    1.0760    2.1980 h1        1 DXP      0.001700
     21 HO3         3.6140   -1.1910   -0.1850 ho        1 DXP      0.382000
     22 HO4         3.2980    2.9340    1.1170 ho        1 DXP      0.441000
@<TRIPOS>BOND
     1    1    2 1   
     2    1   14 1   
     3    1   15 1   
     4    1   16 1   
     5    2    3 1   
     6    2    6 2   
     7    3    4 1   
     8    3    7 1   
     9    3   17 1   
    10    4    5 1   
    11    4    8 1   
    12    4   18 1   
    13    5    9 1   
    14    5   19 1   
    15    5   20 1   
    16    7   21 1   
    17    8   22 1   
    18    9   10 1   
    19   10   11 1   
    20   10   12 1   
    21   10   13 1   
@<TRIPOS>SUBSTRUCTURE
     1 DXP         1 TEMP              0 ****  ****    0 ROOT
