@<TRIPOS>MOLECULE
molecule
   22    21     1     0     0
SMALL
bcc


@<TRIPOS>ATOM
      1 C1           0.0000     0.0000     0.0000 c3         1 DXP      -0.206100
      2 C2           1.5080     0.0000     0.0000 c          1 DXP       0.528100
      3 C3           2.2610     0.0000     1.3040 c3         1 DXP       0.049100
      4 C4           2.5160     1.4410     1.7470 c3         1 DXP       0.153100
      5 C5           3.2810     1.4410     3.0710 c3         1 DXP       0.151400
      6 O2           2.1100    -0.0000    -1.0460 o          1 DXP      -0.517100
      7 O3           3.5080    -0.6740     1.1340 oh         1 DXP      -0.541800
      8 O4           3.2870     2.1150     0.7520 oh         1 DXP      -0.578800
      9 O5           3.5200     2.7880     3.4850 os         1 DXP      -0.540200
     10 P            4.3230     2.7120     4.8770 p5         1 DXP       1.157900
     11 O2P          4.6280     4.2030     5.4030 o          1 DXP      -0.911833
     12 O1P          3.4360     1.9290     5.9670 o          1 DXP      -0.911833
     13 O3P          5.5990     1.9930     4.6710 o          1 DXP      -0.911833
     14 HC11        -0.3610    -1.0010     0.2010 hc         1 DXP       0.048700
     15 HC12        -0.3610     0.3260    -0.9680 hc         1 DXP       0.048700
     16 HC13        -0.3610     0.6750     0.7660 hc         1 DXP       0.048700
     17 HC3          1.6750    -0.5110     2.0590 h1         1 DXP       0.041700
     18 HC4          1.5690     1.9520     1.8780 h1         1 DXP       0.021700
     19 H51          4.2280     0.9300     2.9410 h1         1 DXP       0.055200
     20 H52          2.6960     0.9300     3.8260 h1         1 DXP       0.055200
     21 HO3          3.3880    -1.5980     1.2780 ho         1 DXP       0.375000
     22 HO4          2.8670     2.9280     0.5260 ho         1 DXP       0.385000
@<TRIPOS>BOND
     1     1     2 1
     2     1    14 1
     3     1    15 1
     4     1    16 1
     5     2     3 1
     6     2     6 2
     7     3     4 1
     8     3     7 1
     9     3    17 1
    10     4     5 1
    11     4     8 1
    12     4    18 1
    13     5     9 1
    14     5    19 1
    15     5    20 1
    16     7    21 1
    17     8    22 1
    18     9    10 1
    19    10    11 1
    20    10    12 1
    21    10    13 1
@<TRIPOS>SUBSTRUCTURE
     1 DXP         1 TEMP              0 ****  ****    0 ROOT
