@<TRIPOS>MOLECULE
DXQ
   78    81     1     0     0
SMALL
bcc


@<TRIPOS>ATOM
      1 N1           0.0000     0.0000     0.0000 nb         1 DXQ      -0.742000
      2 C2           1.3290     0.0000     0.0000 ca         1 DXQ       0.753900
      3 N3           2.0430     0.0000     1.1100 nb         1 DXQ      -0.740000
      4 C4           1.4350     0.0000     2.3080 ca         1 DXQ       0.484600
      5 C5           0.0200     0.0010     2.3550 ca         1 DXQ      -0.339600
      6 C6          -0.6920     0.0000     1.1300 ca         1 DXQ       0.583200
      7 CAA         -1.9760     0.0030     5.9190 c3         1 DXQ       0.241700
      8 CAB          7.8020    -0.2380     8.3350 c3         1 DXQ       0.181600
      9 CAC          6.0560     1.2540     9.1020 c3         1 DXQ       0.181600
     10 CAF          2.1640     0.0010     3.5040 ca         1 DXQ      -0.278300
     11 CAG         -0.6380     0.0020     3.5920 ca         1 DXQ      -0.153000
     12 CAH          4.2380     0.0000     7.1640 c3         1 DXQ      -0.042400
     13 CAI          4.1730    -0.5400    -2.1730 c3         1 DXQ      -0.033400
     14 CAK         -4.1800     0.6100     0.0340 c3         1 DXQ      -0.040900
     15 CAL         -2.9380    -1.4390    -0.6640 c3         1 DXQ      -0.040900
     16 CAM          5.7640    -0.0000     7.0520 c3         1 DXQ       0.157800
     17 CAN          3.9130     0.2870    -3.4480 c3         1 DXQ       0.147800
     18 CAO          3.4610    -0.0000    -1.0170 c3         1 DXQ       0.122800
     19 CAP         -4.9480     0.5500    -1.2890 c3         1 DXQ       0.162300
     20 CAQ         -3.7420    -1.4380    -1.9670 c3         1 DXQ       0.162300
     21 CAR          1.5090     0.7920    -3.5150 c3         1 DXQ       0.161800
     22 CAS          1.6030     1.1340    -2.0160 c3         1 DXQ       0.129800
     23 NAV         -2.0710     0.0000     1.1150 nu         1 DXQ      -0.476900
     24 CAY          0.0920     0.0020     4.7460 ca         1 DXQ       0.104100
     25 CAZ          1.4940    -0.0010     4.7070 ca         1 DXQ       0.176100
     26 CBE         -2.7890    -0.0000    -0.1610 c3         1 DXQ       0.126500
     27 NBF          6.3540     0.0000     8.3960 n3         1 DXQ      -0.544600
     28 NBG          2.6200    -0.0730    -3.9760 n3         1 DXQ      -0.533600
     29 NBH         -5.0640    -0.8460    -1.7270 n3         1 DXQ      -0.547600
     30 NBI          1.9920    -0.0000    -1.2140 nh         1 DXQ      -0.412300
     31 HAA         -2.3270    -0.8690     5.3800 h1         1 DXQ      -0.003633
     32 HAAA        -2.3560    -0.0230     6.9330 h1         1 DXQ      -0.003633
     33 HAAB        -2.3280     0.8990     5.4240 h1         1 DXQ      -0.003633
     34 HAB          7.9910    -1.1980     7.8690 h1         1 DXQ       0.002033
     35 HABA         8.2110    -0.2380     9.3390 h1         1 DXQ       0.002033
     36 HABB         8.2730     0.5450     7.7540 h1         1 DXQ       0.002033
     37 HAC          5.1050     1.1630     9.6130 h1         1 DXQ       0.002033
     38 HACA         6.8370     1.4550     9.8250 h1         1 DXQ       0.002033
     39 HACB         6.0060     2.0670     8.3880 h1         1 DXQ       0.002033
     40 HAD          3.3490    -0.9220    -5.7490 h1         1 DXQ      -0.002300
     41 HADA         1.6640    -0.3880    -5.8150 h1         1 DXQ      -0.002300
     42 HADB         2.9720     0.8040    -5.8470 h1         1 DXQ      -0.002300
     43 HAE         -6.8930    -0.5440    -2.7050 h1         1 DXQ       0.000367
     44 HAEA        -5.4620    -0.4010    -3.7360 h1         1 DXQ       0.000367
     45 HAEB        -6.0110    -1.9960    -3.2010 h1         1 DXQ       0.000367
     46 HAF          3.2400    -0.1300     3.4830 ha         1 DXQ       0.141000
     47 HAG         -1.7150     0.1090     3.6320 ha         1 DXQ       0.121000
     48 HAH          3.9160     0.8850     7.6990 hc         1 DXQ       0.033200
     49 HAHA         3.9150    -0.8840     7.7000 hc         1 DXQ       0.033200
     50 HAI          5.2360    -0.5370    -1.9630 hc         1 DXQ       0.025700
     51 HAIA         3.8450    -1.5590    -2.3430 hc         1 DXQ       0.025700
     52 HAJ          3.9450    -0.8840     5.2270 h1         1 DXQ       0.004200
     53 HAJA         3.9450     0.8850     5.2270 h1         1 DXQ       0.004200
     54 HAK         -4.0800     1.6420     0.3460 hc         1 DXQ       0.027200
     55 HAKA        -4.7180     0.0480     0.7880 hc         1 DXQ       0.027200
     56 HAL         -3.4580    -2.0290     0.0800 hc         1 DXQ       0.027200
     57 HALA        -1.9570    -1.8600    -0.8460 hc         1 DXQ       0.027200
     58 HAM          6.0870     0.8840     6.5160 h1         1 DXQ       0.008700
     59 HAMA         6.0860    -0.8850     6.5160 h1         1 DXQ       0.008700
     60 HAN          4.6780     0.0710    -4.1840 h1         1 DXQ       0.009200
     61 HANA         3.9230     1.3430    -3.2040 h1         1 DXQ       0.009200
     62 HAO          3.6970    -0.6020    -0.1480 h1         1 DXQ       0.032700
     63 HAOA         3.7910     1.0170    -0.8470 h1         1 DXQ       0.032700
     64 HAP         -4.4150     1.1200    -2.0410 h1         1 DXQ       0.010700
     65 HAPA        -5.9390     0.9660    -1.1490 h1         1 DXQ       0.010700
     66 HAQ         -3.2160    -0.8540    -2.7140 h1         1 DXQ       0.010700
     67 HAQA        -3.8620    -2.4560    -2.3170 h1         1 DXQ       0.010700
     68 HAR          1.5270     1.7140    -4.0840 h1         1 DXQ       0.007200
     69 HARA         0.5720     0.2810    -3.6970 h1         1 DXQ       0.007200
     70 HAS          0.6350     1.4840    -1.6780 h1         1 DXQ       0.024200
     71 HASA         2.3330     1.9230    -1.8830 h1         1 DXQ       0.024200
     72 HNAV        -2.5810     0.0220     1.9760 hn         1 DXQ       0.297800
     73 HBE         -2.2400     0.5820    -0.8910 h1         1 DXQ       0.058700
     74 OAW         -0.5470     0.0030     5.9460 os         1 DXQ      -0.291900
     75 OAX          2.1980     0.0000     5.8690 os         1 DXQ      -0.289900
     76 CAD          2.6530    -0.1500    -5.4430 c3         1 DXQ       0.186100
     77 CAE         -5.9130    -0.9540    -2.9200 c3         1 DXQ       0.188100
     78 CAJ          3.6230     0.0000     5.7630 c3         1 DXQ       0.199400
@<TRIPOS>BOND
     1     1     2 ar  
     2     1     6 ar  
     3     2     3 ar  
     4     2    30 1   
     5     3     4 ar  
     6     4     5 ar  
     7     4    10 ar  
     8     5     6 ar  
     9     5    11 ar  
    10     6    23 1   
    11     7    31 1   
    12     7    32 1   
    13     7    33 1   
    14     7    74 1   
    15     8    27 1   
    16     8    34 1   
    17     8    35 1   
    18     8    36 1   
    19     9    27 1   
    20     9    37 1   
    21     9    38 1   
    22     9    39 1   
    23    10    25 ar  
    24    10    46 1   
    25    11    24 ar  
    26    11    47 1   
    27    12    16 1   
    28    12    48 1   
    29    12    49 1   
    30    12    78 1   
    31    13    17 1   
    32    13    18 1   
    33    13    50 1   
    34    13    51 1   
    35    14    19 1   
    36    14    26 1   
    37    14    54 1   
    38    14    55 1   
    39    15    20 1   
    40    15    26 1   
    41    15    56 1   
    42    15    57 1   
    43    16    27 1   
    44    16    58 1   
    45    16    59 1   
    46    17    28 1   
    47    17    60 1   
    48    17    61 1   
    49    18    30 1   
    50    18    62 1   
    51    18    63 1   
    52    19    29 1   
    53    19    64 1   
    54    19    65 1   
    55    20    29 1   
    56    20    66 1   
    57    20    67 1   
    58    21    22 1   
    59    21    28 1   
    60    21    68 1   
    61    21    69 1   
    62    22    30 1   
    63    22    70 1   
    64    22    71 1   
    65    23    26 1   
    66    23    72 1   
    67    24    25 ar  
    68    24    74 1   
    69    25    75 1   
    70    26    73 1   
    71    28    76 1   
    72    29    77 1   
    73    40    76 1   
    74    41    76 1   
    75    42    76 1   
    76    43    77 1   
    77    44    77 1   
    78    45    77 1   
    79    52    78 1   
    80    53    78 1   
    81    75    78 1   
@<TRIPOS>SUBSTRUCTURE
     1 DXQ         1 TEMP              0 ****  ****    0 ROOT
