@<TRIPOS>MOLECULE
molecule
   78    81     1     0     0
SMALL
bcc


@<TRIPOS>ATOM
      1 N1           0.0000     0.0000     0.0000 nb         1 DXQ      -0.846000
      2 C2           1.3290     0.0000     0.0000 ca         1 DXQ       0.915900
      3 N3           2.0430     0.0000     1.1100 nb         1 DXQ      -0.831000
      4 C4           1.4350     0.0000     2.3080 ca         1 DXQ       0.513600
      5 C5           0.0200     0.0010     2.3550 ca         1 DXQ      -0.346600
      6 C6          -0.6920     0.0000     1.1300 ca         1 DXQ       0.768200
      7 CAA         -1.9760     0.0030     5.9190 c3         1 DXQ       0.127700
      8 CAB          7.8020    -0.2380     8.3350 c3         1 DXQ       0.150600
      9 CAC          6.0560     1.2540     9.1020 c3         1 DXQ       0.150600
     10 CAF          2.1640     0.0010     3.5040 ca         1 DXQ      -0.282300
     11 CAG         -0.6380     0.0020     3.5920 ca         1 DXQ      -0.161000
     12 CAH          4.2380     0.0000     7.1640 c3         1 DXQ      -0.082400
     13 CAI          4.1730    -0.5400    -2.1730 c3         1 DXQ      -0.084400
     14 CAK         -4.1800     0.6100     0.0340 c3         1 DXQ      -0.094400
     15 CAL         -2.9380    -1.4390    -0.6640 c3         1 DXQ      -0.094400
     16 CAM          5.7640    -0.0000     7.0520 c3         1 DXQ       0.164800
     17 CAN          3.9130     0.2870    -3.4480 c3         1 DXQ       0.169800
     18 CAO          3.4610    -0.0000    -1.0170 c3         1 DXQ       0.175800
     19 CAP         -4.9480     0.5500    -1.2890 c3         1 DXQ       0.166800
     20 CAQ         -3.7420    -1.4380    -1.9670 c3         1 DXQ       0.166800
     21 CAR          1.5090     0.7920    -3.5150 c3         1 DXQ       0.178800
     22 CAS          1.6030     1.1340    -2.0160 c3         1 DXQ       0.170800
     23 NAV         -2.0710     0.0000     1.1150 nu         1 DXQ      -0.894900
     24 CAY          0.0920     0.0020     4.7460 ca         1 DXQ       0.100100
     25 CAZ          1.4940    -0.0010     4.7070 ca         1 DXQ       0.173100
     26 CBE         -2.7890    -0.0000    -0.1610 c3         1 DXQ       0.240500
     27 NBF          6.3540     0.0000     8.3960 n3         1 DXQ      -0.729600
     28 NBG          2.6200    -0.0730    -3.9760 n3         1 DXQ      -0.734600
     29 NBH         -5.0640    -0.8460    -1.7270 n3         1 DXQ      -0.734600
     30 NBI          1.9920    -0.0000    -1.2140 nh         1 DXQ      -0.660300
     31 HAA         -2.3270    -0.8690     5.3800 h1         1 DXQ       0.039367
     32 HAAA        -2.3560    -0.0230     6.9330 h1         1 DXQ       0.039367
     33 HAAB        -2.3280     0.8990     5.4240 h1         1 DXQ       0.039367
     34 HAB          7.9910    -1.1980     7.8690 h1         1 DXQ       0.033200
     35 HABA         8.2110    -0.2380     9.3390 h1         1 DXQ       0.033200
     36 HABB         8.2730     0.5450     7.7540 h1         1 DXQ       0.033200
     37 HAC          5.1050     1.1630     9.6130 h1         1 DXQ       0.033200
     38 HACA         6.8370     1.4550     9.8250 h1         1 DXQ       0.033200
     39 HACB         6.0060     2.0670     8.3880 h1         1 DXQ       0.033200
     40 HAD          3.3490    -0.9220    -5.7490 h1         1 DXQ       0.029033
     41 HADA         1.6640    -0.3880    -5.8150 h1         1 DXQ       0.029033
     42 HADB         2.9720     0.8040    -5.8470 h1         1 DXQ       0.029033
     43 HAE         -6.8930    -0.5440    -2.7050 h1         1 DXQ       0.032367
     44 HAEA        -5.4620    -0.4010    -3.7360 h1         1 DXQ       0.032367
     45 HAEB        -6.0110    -1.9960    -3.2010 h1         1 DXQ       0.032367
     46 HAF          3.2400    -0.1300     3.4830 ha         1 DXQ       0.160000
     47 HAG         -1.7150     0.1090     3.6320 ha         1 DXQ       0.133000
     48 HAH          3.9160     0.8850     7.6990 hc         1 DXQ       0.064700
     49 HAHA         3.9150    -0.8840     7.7000 hc         1 DXQ       0.064700
     50 HAI          5.2360    -0.5370    -1.9630 hc         1 DXQ       0.057200
     51 HAIA         3.8450    -1.5590    -2.3430 hc         1 DXQ       0.057200
     52 HAJ          3.9450    -0.8840     5.2270 h1         1 DXQ       0.038200
     53 HAJA         3.9450     0.8850     5.2270 h1         1 DXQ       0.038200
     54 HAK         -4.0800     1.6420     0.3460 hc         1 DXQ       0.056700
     55 HAKA        -4.7180     0.0480     0.7880 hc         1 DXQ       0.056700
     56 HAL         -3.4580    -2.0290     0.0800 hc         1 DXQ       0.056700
     57 HALA        -1.9570    -1.8600    -0.8460 hc         1 DXQ       0.056700
     58 HAM          6.0870     0.8840     6.5160 h1         1 DXQ       0.034200
     59 HAMA         6.0860    -0.8850     6.5160 h1         1 DXQ       0.034200
     60 HAN          4.6780     0.0710    -4.1840 h1         1 DXQ       0.029700
     61 HANA         3.9230     1.3430    -3.2040 h1         1 DXQ       0.029700
     62 HAO          3.6970    -0.6020    -0.1480 h1         1 DXQ       0.054700
     63 HAOA         3.7910     1.0170    -0.8470 h1         1 DXQ       0.054700
     64 HAP         -4.4150     1.1200    -2.0410 h1         1 DXQ       0.036950
     65 HAPA        -5.9390     0.9660    -1.1490 h1         1 DXQ       0.036950
     66 HAQ         -3.2160    -0.8540    -2.7140 h1         1 DXQ       0.036950
     67 HAQA        -3.8620    -2.4560    -2.3170 h1         1 DXQ       0.036950
     68 HAR          1.5270     1.7140    -4.0840 h1         1 DXQ       0.036200
     69 HARA         0.5720     0.2810    -3.6970 h1         1 DXQ       0.036200
     70 HAS          0.6350     1.4840    -1.6780 h1         1 DXQ       0.047700
     71 HASA         2.3330     1.9230    -1.8830 h1         1 DXQ       0.047700
     72 HNAV        -2.5810     0.0220     1.9760 hn         1 DXQ       0.447800
     73 HBE         -2.2400     0.5820    -0.8910 h1         1 DXQ       0.079700
     74 OAW         -0.5470     0.0030     5.9460 os         1 DXQ      -0.312900
     75 OAX          2.1980     0.0000     5.8690 os         1 DXQ      -0.309900
     76 CAD          2.6530    -0.1500    -5.4430 c3         1 DXQ       0.158100
     77 CAE         -5.9130    -0.9540    -2.9200 c3         1 DXQ       0.153100
     78 CAJ          3.6230     0.0000     5.7630 c3         1 DXQ       0.133400
@<TRIPOS>BOND
     1     1     2 ar
     2     1     6 ar
     3     2     3 ar
     4     2    30 1
     5     3     4 ar
     6     4     5 ar
     7     4    10 ar
     8     5     6 ar
     9     5    11 ar
    10     6    23 1
    11     7    74 1
    12     8    27 1
    13     9    27 1
    14    76    28 1
    15    77    29 1
    16    10    25 ar
    17    11    24 ar
    18    12    78 1
    19    12    16 1
    20    13    17 1
    21    13    18 1
    22    78    75 1
    23    14    19 1
    24    14    26 1
    25    15    20 1
    26    15    26 1
    27    16    27 1
    28    17    28 1
    29    18    30 1
    30    19    29 1
    31    20    29 1
    32    21    22 1
    33    21    28 1
    34    22    30 1
    35    23    26 1
    36    74    24 1
    37    75    25 1
    38    24    25 ar
    39     7    31 1
    40     7    32 1
    41     7    33 1
    42     8    34 1
    43     8    35 1
    44     8    36 1
    45     9    37 1
    46     9    38 1
    47     9    39 1
    48    76    40 1
    49    76    41 1
    50    76    42 1
    51    77    43 1
    52    77    44 1
    53    77    45 1
    54    10    46 1
    55    11    47 1
    56    12    48 1
    57    12    49 1
    58    13    50 1
    59    13    51 1
    60    78    52 1
    61    78    53 1
    62    14    54 1
    63    14    55 1
    64    15    56 1
    65    15    57 1
    66    16    58 1
    67    16    59 1
    68    17    60 1
    69    17    61 1
    70    18    62 1
    71    18    63 1
    72    19    64 1
    73    19    65 1
    74    20    66 1
    75    20    67 1
    76    21    68 1
    77    21    69 1
    78    22    70 1
    79    22    71 1
    80    23    72 1
    81    26    73 1
@<TRIPOS>SUBSTRUCTURE
     1 DXQ         1 TEMP              0 ****  ****    0 ROOT
