@<TRIPOS>MOLECULE
DXR
   40    42     1     0     0
SMALL
bcc


@<TRIPOS>ATOM
      1 N1           0.0000     0.0000     0.0000 nb         1 DXR      -0.669000
      2 C2           1.3150     0.0000     0.0000 ca         1 DXR       0.688900
      3 N3           2.0280     0.0000     1.1120 nb         1 DXR      -0.716000
      4 C4           1.4430    -0.0000     2.3050 ca         1 DXR       0.614200
      5 C5           0.0350    -0.0000     2.3600 ca         1 DXR      -0.528500
      6 C6          -0.6800     0.0000     1.1460 ca         1 DXR       0.329800
      7 NAG          2.1960    -0.0010     3.4620 nv         1 DXR      -0.595500
      8 CAH         -0.9180     0.0010     3.4010 cc         1 DXR       0.423900
      9 NAI         -2.1070     0.0010     2.8710 nd         1 DXR      -0.624100
     10 NAJ         -2.0020    -0.0000     1.4750 na         1 DXR       0.396200
     11 CAK         -3.1210     0.0010     0.5300 c3         1 DXR      -0.046300
     12 CAL         -3.0460    -1.2480    -0.3510 c3         1 DXR      -0.012100
     13 CAM         -4.4420     0.0010     1.3030 c3         1 DXR      -0.012100
     14 CAN         -3.0460     1.2500    -0.3500 c3         1 DXR      -0.012100
     15 CAO         -0.6100     0.0000     4.8760 c3         1 DXR       0.034600
     16 CAP         -0.6450     1.4150     5.3970 ca         1 DXR      -0.085300
     17 CAQ         -1.8270     1.9450     5.8780 ca         1 DXR      -0.069000
     18 CAR         -1.8590     3.2430     6.3560 ca         1 DXR       0.037100
     19 CAS         -0.7080     4.0090     6.3520 ca         1 DXR      -0.084000
     20 CAT          0.4750     3.4780     5.8700 ca         1 DXR      -0.094000
     21 CAU          0.5070     2.1800     5.3980 ca         1 DXR      -0.097000
     22 BrAV        -3.4760     3.9690     7.0150 br         1 DXR      -0.131100
     23 H2           1.8340     0.0000    -0.9510 h5         1 DXR      -0.003900
     24 HNAG         2.8980     0.6980     3.6020 hn         1 DXR       0.281800
     25 HNAA         2.0840    -0.7380     4.1310 hn         1 DXR       0.281800
     26 HAL         -4.0050    -1.4100    -0.8300 hc         1 DXR       0.019589
     27 HALA        -2.7980    -2.1070     0.2610 hc         1 DXR       0.019589
     28 HALB        -2.2830    -1.1110    -1.1080 hc         1 DXR       0.019589
     29 HAM         -4.5130     0.9040     1.8970 hc         1 DXR       0.019589
     30 HAMA        -4.4790    -0.8630     1.9540 hc         1 DXR       0.019589
     31 HAMB        -5.2690    -0.0370     0.6040 hc         1 DXR       0.019589
     32 HAN         -2.2760     1.1180    -1.1000 hc         1 DXR       0.019589
     33 HANA        -4.0010     1.4070    -0.8370 hc         1 DXR       0.019589
     34 HANB        -2.8080     2.1110     0.2640 hc         1 DXR       0.019589
     35 HAO          0.3750    -0.4210     5.0390 hc         1 DXR       0.028700
     36 HAOA        -1.3490    -0.5950     5.3990 hc         1 DXR       0.028700
     37 HAQ         -2.7280     1.3440     5.8810 ha         1 DXR       0.126000
     38 HAS         -0.7330     5.0260     6.7240 ha         1 DXR       0.116000
     39 HAT          1.3770     4.0780     5.8680 ha         1 DXR       0.107000
     40 HAU          1.4330     1.7640     5.0200 ha         1 DXR       0.108000
@<TRIPOS>BOND
     1     1     2 ar  
     2     1     6 ar  
     3     2     3 ar  
     4     2    23 1   
     5     3     4 ar  
     6     4     5 ar  
     7     4     7 1   
     8     5     6 ar  
     9     5     8 1   
    10     6    10 1   
    11     7    24 1   
    12     7    25 1   
    13     8     9 2   
    14     8    15 1   
    15     9    10 1   
    16    10    11 1   
    17    11    12 1   
    18    11    13 1   
    19    11    14 1   
    20    12    26 1   
    21    12    27 1   
    22    12    28 1   
    23    13    29 1   
    24    13    30 1   
    25    13    31 1   
    26    14    32 1   
    27    14    33 1   
    28    14    34 1   
    29    15    16 1   
    30    15    35 1   
    31    15    36 1   
    32    16    17 ar  
    33    16    21 ar  
    34    17    18 ar  
    35    17    37 1   
    36    18    19 ar  
    37    18    22 1   
    38    19    20 ar  
    39    19    38 1   
    40    20    21 ar  
    41    20    39 1   
    42    21    40 1   
@<TRIPOS>SUBSTRUCTURE
     1 DXR         1 TEMP              0 ****  ****    0 ROOT
