@<TRIPOS>MOLECULE
DXS
   77    81     1     0     0
SMALL
bcc


@<TRIPOS>ATOM
      1 CAA          0.0000     0.0000     0.0000 cc         1 DXS      -0.135400
      2 CAB         -0.8930     0.0060    -1.2140 c3         1 DXS       0.002800
      3 CAC         -1.1850     1.4280    -1.6160 c          1 DXS       0.569100
      4 CAE          1.3410     0.0000     0.0000 cd         1 DXS      -0.158600
      5 CAG          0.7400    -0.0050     2.1740 ca         1 DXS      -0.184400
      6 CAH         -0.4340     0.0000     1.4010 ca         1 DXS      -0.033800
      7 CAI          3.1080    -0.0000     1.6470 c          1 DXS       0.624700
      8 CAJ          0.6490    -0.0060     3.5590 ca         1 DXS      -0.053000
      9 CAK         -0.5880    -0.0020     4.1690 ca         1 DXS      -0.187000
     10 CAL         -1.7520     0.0030     3.4070 ca         1 DXS       0.129100
     11 CAM         -1.6800     0.0050     2.0260 ca         1 DXS      -0.099000
     12 CAP         -2.2530     3.0620    -3.0750 c3         1 DXS       0.040000
     13 CAQ         -3.1610     3.0670    -4.3060 c3         1 DXS       0.214800
     14 CAR          3.8490     1.2750     1.7370 ca         1 DXS      -0.208600
     15 CAS          5.2210     1.2710     1.9970 ca         1 DXS      -0.029000
     16 CAT          5.9070     2.4640     2.0790 ca         1 DXS      -0.117500
     17 CAU          5.2390     3.6640     1.9040 ca         1 DXS      -0.002600
     18 CAV          3.8780     3.6750     1.6470 ca         1 DXS      -0.117500
     19 CAW          3.1810     2.4880     1.5570 ca         1 DXS      -0.029000
     20 CBA         -5.6420     4.0240    -6.2980 ca         1 DXS      -0.161500
     21 CBB         -6.6820     4.4590    -5.4570 ca         1 DXS       0.052000
     22 CBC         -7.9550     3.8450    -5.5530 ca         1 DXS      -0.052000
     23 CBD         -8.1540     2.8130    -6.4840 ca         1 DXS      -0.010000
     24 CBE         -7.1250     2.4170    -7.2810 ca         1 DXS      -0.154000
     25 CBF         -5.8720     3.0210    -7.1890 ca         1 DXS       0.035000
     26 CBG         -6.4800     5.4920    -4.5260 ca         1 DXS      -0.126000
     27 CBH         -7.5050     5.8940    -3.7240 ca         1 DXS      -0.063000
     28 CBI         -8.7600     5.2980    -3.8070 ca         1 DXS      -0.144000
     29 CBJ         -8.9980     4.2830    -4.7100 ca         1 DXS       0.037600
     30 CBN          2.2060     0.0000    -1.2320 c3         1 DXS       0.083100
     31 CBP         -2.9670     0.0070     5.4510 c3         1 DXS       0.244700
     32 CBQ        -10.6360     3.0860    -3.5030 c3         1 DXS       0.179600
     33 CBR        -11.2690     4.6660    -5.2250 c3         1 DXS       0.179600
     34 NAD         -1.9700     1.6790    -2.6820 ns         1 DXS      -0.206900
     35 NAF          1.8080     0.0000     1.2920 n          1 DXS       0.203800
     36 NAY         -3.4450     4.4500    -4.6980 n7         1 DXS      -0.584100
     37 NBK        -10.2590     3.6930    -4.7870 nh         1 DXS      -0.412000
     38 OAN         -0.7140     2.3470    -0.9810 o          1 DXS      -0.637100
     39 OAO          3.6700    -1.0480     1.8950 o          1 DXS      -0.531100
     40 OBL         -3.2250     4.0850    -7.1280 o          1 DXS      -0.586300
     41 OBM         -4.2690     6.1800    -6.2520 o          1 DXS      -0.586300
     42 OBO         -2.9650     0.0080     4.0220 os         1 DXS      -0.310900
     43 SAZ         -4.0530     4.7770    -6.2030 sy         1 DXS       1.050200
     44 ClAX         6.1100     5.1620     2.0090 cl         1 DXS      -0.015400
     45 H1          -1.8220    -0.5010    -0.9810 hc         1 DXS       0.029200
     46 H2          -0.3970    -0.5060    -2.0300 hc         1 DXS       0.029200
     47 H3           1.5490    -0.0100     4.1620 ha         1 DXS       0.103000
     48 H4          -0.6540    -0.0030     5.2510 ha         1 DXS       0.120000
     49 H5          -2.5870     0.0080     1.4340 ha         1 DXS       0.113000
     50 H6          -1.3250     3.5680    -3.3090 h1         1 DXS       0.029700
     51 H7          -2.7480     3.5750    -2.2590 h1         1 DXS       0.029700
     52 H8          -2.6660     2.5550    -5.1220 h1         1 DXS       0.016700
     53 H9          -4.0890     2.5610    -4.0720 h1         1 DXS       0.016700
     54 H10          5.7450     0.3330     2.1340 ha         1 DXS       0.128000
     55 H11          6.9720     2.4620     2.2800 ha         1 DXS       0.121500
     56 H12          3.3610     4.6170     1.5090 ha         1 DXS       0.121500
     57 H13          2.1170     2.4970     1.3560 ha         1 DXS       0.128000
     58 H14         -9.1230     2.3350    -6.5670 ha         1 DXS       0.123000
     59 H15         -7.2820     1.6210    -7.9990 ha         1 DXS       0.110000
     60 H16         -5.0700     2.6870    -7.8360 ha         1 DXS       0.126000
     61 H17         -5.5100     5.9680    -4.4460 ha         1 DXS       0.133000
     62 H18         -7.3400     6.6900    -3.0070 ha         1 DXS       0.104000
     63 H19         -9.5580     5.6360    -3.1580 ha         1 DXS       0.112000
     64 H20          3.2000    -0.3450    -0.9760 hc         1 DXS       0.014367
     65 H21          2.2650     1.0060    -1.6320 hc         1 DXS       0.014367
     66 H22          1.7760    -0.6590    -1.9760 hc         1 DXS       0.014367
     67 H23         -3.9880     0.0090     5.8110 h1         1 DXS      -0.004300
     68 H24         -2.4540     0.8890     5.8140 h1         1 DXS      -0.004300
     69 H25         -2.4590    -0.8800     5.8130 h1         1 DXS      -0.004300
     70 H26         -9.7760     2.5870    -3.0730 h1         1 DXS       0.005367
     71 H27        -10.9810     3.8580    -2.8260 h1         1 DXS       0.005367
     72 H28        -11.4290     2.3660    -3.6630 h1         1 DXS       0.005367
     73 H29        -10.8580     5.2810    -6.0170 h1         1 DXS       0.005367
     74 H30        -11.5520     5.2940    -4.3900 h1         1 DXS       0.005367
     75 H31        -12.1410     4.1400    -5.5940 h1         1 DXS       0.005367
     76 H32         -2.3530     0.9200    -3.2110 hn         1 DXS       0.173500
     77 H33         -3.2460     5.2000    -4.0660 hn         1 DXS       0.354800
@<TRIPOS>BOND
     1     1     2 1   
     2     1     4 2   
     3     1     6 1   
     4     2     3 1   
     5     2    45 1   
     6     2    46 1   
     7     3    34 1   
     8     3    38 2   
     9     4    30 1   
    10     4    35 1   
    11     5     6 ar  
    12     5     8 ar  
    13     5    35 1   
    14     6    11 ar  
    15     7    14 1   
    16     7    35 1   
    17     7    39 2   
    18     8     9 ar  
    19     8    47 1   
    20     9    10 ar  
    21     9    48 1   
    22    10    11 ar  
    23    10    42 1   
    24    11    49 1   
    25    12    13 1   
    26    12    34 1   
    27    12    50 1   
    28    12    51 1   
    29    13    36 1   
    30    13    52 1   
    31    13    53 1   
    32    14    15 ar  
    33    14    19 ar  
    34    15    16 ar  
    35    15    54 1   
    36    16    17 ar  
    37    16    55 1   
    38    17    18 ar  
    39    17    44 1   
    40    18    19 ar  
    41    18    56 1   
    42    19    57 1   
    43    20    21 ar  
    44    20    25 ar  
    45    20    43 1   
    46    21    22 ar  
    47    21    26 ar  
    48    22    23 ar  
    49    22    29 ar  
    50    23    24 ar  
    51    23    58 1   
    52    24    25 ar  
    53    24    59 1   
    54    25    60 1   
    55    26    27 ar  
    56    26    61 1   
    57    27    28 ar  
    58    27    62 1   
    59    28    29 ar  
    60    28    63 1   
    61    29    37 1   
    62    30    64 1   
    63    30    65 1   
    64    30    66 1   
    65    31    42 1   
    66    31    67 1   
    67    31    68 1   
    68    31    69 1   
    69    32    37 1   
    70    32    70 1   
    71    32    71 1   
    72    32    72 1   
    73    33    37 1   
    74    33    73 1   
    75    33    74 1   
    76    33    75 1   
    77    34    76 1   
    78    36    43 1   
    79    36    77 1   
    80    40    43 2   
    81    41    43 2   
@<TRIPOS>SUBSTRUCTURE
     1 DXS         1 TEMP              0 ****  ****    0 ROOT
