@<TRIPOS>MOLECULE
DXT
   57    60     1     0     0
SMALL
bcc


@<TRIPOS>ATOM
      1 C1           0.0000     0.0000     0.0000 c          1 DXT       0.629300
      2 O1          -0.6020    -0.0490    -1.0730 o          1 DXT      -0.529100
      3 C2           1.4970     0.0000     0.0000 ce         1 DXT      -0.500400
      4 O21          2.5670     1.0650    -1.8080 o          1 DXT      -0.377100
      5 C21          2.2500     0.0130    -1.2640 c          1 DXT       0.394300
      6 N21          2.5390    -1.2430    -1.7350 nz         1 DXT       0.191600
      7 C3           2.1730     0.0000     1.1630 c2         1 DXT       0.309900
      8 O3           3.5600     0.0170     1.1820 oh         1 DXT      -0.498100
      9 C4           1.5210    -0.0560     2.5270 c3         1 DXT       0.163700
     10 N4           1.6240     1.2600     3.1750 n3         1 DXT      -0.507600
     11 C41          3.0270     1.6340     3.3310 c3         1 DXT       0.166100
     12 C42          0.9470     1.2370     4.4680 c3         1 DXT       0.166100
     13 C4A          0.0490    -0.5620     2.4670 c3         1 DXT      -0.088700
     14 C5          -0.0140    -2.1040     2.3270 c3         1 DXT       0.203100
     15 O5           0.5750    -2.6370     3.5210 oh         1 DXT      -0.592800
     16 C5A         -1.4530    -2.6700     2.1800 c3         1 DXT      -0.005500
     17 C6          -1.5330    -3.9540     1.2880 c3         1 DXT       0.029600
     18 C61         -0.4960    -5.0190     1.6850 c3         1 DXT      -0.000100
     19 C6A         -2.9680    -4.4920     1.2770 ca         1 DXT      -0.013300
     20 C7          -3.2550    -5.8540     1.0800 ca         1 DXT      -0.159000
     21 C8          -4.5690    -6.3300     1.0570 ca         1 DXT      -0.013000
     22 C9          -5.6300    -5.4500     1.2190 ca         1 DXT      -0.212000
     23 C10         -5.3800    -4.0920     1.3930 ca         1 DXT       0.224100
     24 O10         -6.4690    -3.2820     1.5350 oh         1 DXT      -0.448100
     25 C6B         -4.0600    -3.6120     1.4150 ca         1 DXT      -0.221600
     26 C11         -3.8570    -2.1520     1.5580 c          1 DXT       0.648900
     27 O11         -4.8130    -1.3900     1.6310 o          1 DXT      -0.523100
     28 C5B         -2.4470    -1.6720     1.6280 ce         1 DXT      -0.235400
     29 C12         -2.1330    -0.4260     1.2230 c2         1 DXT       0.113900
     30 O12         -3.0390     0.4650     0.6730 oh         1 DXT      -0.480100
     31 C4B         -0.7350     0.1280     1.3390 c3         1 DXT       0.156000
     32 O13         -0.7940     1.5290     1.6090 oh         1 DXT      -0.549800
     33 H10         -7.1680    -3.7650     1.9440 ho         1 DXT       0.409000
     34 H12         -3.5630     0.8430     1.3590 ho         1 DXT       0.434000
     35 H13         -1.1080     1.9830     0.8450 ho         1 DXT       0.418000
     36 H211         3.3400    -1.1990    -2.3330 hn         1 DXT       0.249467
     37 H212         1.7570    -1.5940    -2.2510 hn         1 DXT       0.249467
     38 HO3          3.8740     0.6830     0.5940 ho         1 DXT       0.428000
     39 H4           2.0810    -0.7640     3.1250 h1         1 DXT       0.061700
     40 H411         3.1290     2.3090     4.1720 h1         1 DXT       0.015533
     41 H412         3.3720     2.1250     2.4300 h1         1 DXT       0.015533
     42 H413         3.6200     0.7450     3.5080 h1         1 DXT       0.015533
     43 H421         1.3790     1.9900     5.1160 h1         1 DXT       0.015533
     44 H422         1.0670     0.2600     4.9210 h1         1 DXT       0.015533
     45 H423        -0.1070     1.4420     4.3270 h1         1 DXT       0.015533
     46 H4A         -0.4260    -0.2980     3.4050 hc         1 DXT       0.081700
     47 H5           0.5740    -2.4060     1.4680 h1         1 DXT       0.014700
     48 HO5         -0.0750    -2.6740     4.2030 ho         1 DXT       0.415000
     49 H5A         -1.7910    -2.9450     3.1720 hc         1 DXT       0.048700
     50 H6          -1.3040    -3.6480     0.2750 hc         1 DXT       0.016700
     51 H7          -2.4370    -6.5540     0.9520 ha         1 DXT       0.114000
     52 H8          -4.7590    -7.3880     0.9220 ha         1 DXT       0.110000
     53 H9          -6.6490    -5.8170     1.2020 ha         1 DXT       0.124000
     54 H611        -0.5510    -5.8520     0.9950 hc         1 DXT       0.013700
     55 H612         0.4970    -4.5860     1.6500 hc         1 DXT       0.013700
     56 H613        -0.7020    -5.3670     2.6890 hc         1 DXT       0.013700
     57 H213         2.7370    -1.8510    -0.9650 hn         1 DXT       0.249467
@<TRIPOS>BOND
     1     1     2 2   
     2     1     3 1   
     3     1    31 1   
     4     3     5 1   
     5     3     7 2   
     6     4     5 2   
     7     5     6 1   
     8     6    36 1   
     9     6    37 1   
    10     6    57 1   
    11     7     8 1   
    12     7     9 1   
    13     8    38 1   
    14     9    10 1   
    15     9    13 1   
    16     9    39 1   
    17    10    11 1   
    18    10    12 1   
    19    11    40 1   
    20    11    41 1   
    21    11    42 1   
    22    12    43 1   
    23    12    44 1   
    24    12    45 1   
    25    13    14 1   
    26    13    31 1   
    27    13    46 1   
    28    14    15 1   
    29    14    16 1   
    30    14    47 1   
    31    15    48 1   
    32    16    17 1   
    33    16    28 1   
    34    16    49 1   
    35    17    18 1   
    36    17    19 1   
    37    17    50 1   
    38    18    54 1   
    39    18    55 1   
    40    18    56 1   
    41    19    20 ar  
    42    19    25 ar  
    43    20    21 ar  
    44    20    51 1   
    45    21    22 ar  
    46    21    52 1   
    47    22    23 ar  
    48    22    53 1   
    49    23    24 1   
    50    23    25 ar  
    51    24    33 1   
    52    25    26 1   
    53    26    27 2   
    54    26    28 1   
    55    28    29 2   
    56    29    30 1   
    57    29    31 1   
    58    30    34 1   
    59    31    32 1   
    60    32    35 1   
@<TRIPOS>SUBSTRUCTURE
     1 DXT         1 TEMP              0 ****  ****    0 ROOT
