@<TRIPOS>MOLECULE
DXU
   55    57     1     0     0
SMALL
bcc


@<TRIPOS>ATOM
      1 Cl1          0.0000     0.0000     0.0000 cl         1 DXU      -0.012400
      2 C29          1.7360     0.0000     0.0000 ca         1 DXU      -0.009100
      3 C30          2.4280     0.0000     1.1990 ca         1 DXU      -0.088500
      4 C31          3.8110    -0.0060     1.1990 ca         1 DXU      -0.089000
      5 C32          4.5020    -0.0120     0.0030 ca         1 DXU      -0.088500
      6 C33          3.8110    -0.0120    -1.1960 ca         1 DXU      -0.009100
      7 Cl2          4.6800    -0.0200    -2.6990 cl         1 DXU      -0.012400
      8 C28          2.4280    -0.0060    -1.1970 ca         1 DXU      -0.056300
      9 C26          1.6750    -0.0120    -2.5030 c3         1 DXU       0.186800
     10 N25          2.4520     0.6780    -3.5580 n7         1 DXU      -0.350700
     11 O24          1.5180     1.4620    -4.3740 os         1 DXU      -0.263100
     12 C23          0.1830     1.2700    -3.8730 c3         1 DXU       0.180100
     13 C27         -0.6100     2.5770    -3.9500 c3         1 DXU      -0.015100
     14 C22          0.3870     0.8450    -2.3960 c3         1 DXU      -0.188700
     15 C21          0.6070     2.0460    -1.5130 c          1 DXU       0.593100
     16 O21          1.7220     2.5040    -1.3790 o          1 DXU      -0.607100
     17 N2          -0.4350     2.6110    -0.8720 ns         1 DXU      -0.192900
     18 C2          -0.2210     3.7790    -0.0130 c3         1 DXU      -0.083300
     19 C1           0.1910     3.3210     1.3630 c          1 DXU       0.643900
     20 O1           0.2960     2.1420     1.6010 o          1 DXU      -0.531100
     21 C3          -1.5180     4.5850     0.0850 c3         1 DXU       0.238600
     22 S4          -2.8040     3.6600     1.0250 ss         1 DXU      -0.455200
     23 C5          -3.6780     5.1660     1.6120 c3         1 DXU       0.066100
     24 C52         -4.9200     5.4350     0.7610 c3         1 DXU       0.002900
     25 C51         -4.0590     5.0250     3.0880 c3         1 DXU       0.002900
     26 C6          -2.6360     6.2840     1.4220 c3         1 DXU       0.096500
     27 N7          -1.3420     5.7820     0.9520 n7         1 DXU      -0.547200
     28 C8          -3.1750     7.2910     0.4030 c3         1 DXU       0.404900
     29 O82         -4.3460     7.9190     0.9280 oh         1 DXU      -0.600300
     30 O81         -2.1800     8.2830     0.1430 oh         1 DXU      -0.600300
     31 H1           1.8860     0.0040     2.1370 ha         1 DXU       0.119000
     32 H2           4.3520    -0.0060     2.1370 ha         1 DXU       0.106000
     33 H3           5.5850    -0.0160     0.0040 ha         1 DXU       0.119000
     34 H4           1.4340    -1.0230    -2.8080 h1         1 DXU       0.028700
     35 H5           2.9090    -0.0010    -4.1340 hn         1 DXU       0.268800
     36 H6          -0.3170     0.4840    -4.4250 h1         1 DXU       0.015700
     37 H7          -0.0080     3.3880    -3.5580 hc         1 DXU       0.015700
     38 H8          -1.5160     2.4850    -3.3640 hc         1 DXU       0.015700
     39 H9          -0.8660     2.7840    -4.9820 hc         1 DXU       0.015700
     40 H10         -0.4470     0.2470    -2.0490 hc         1 DXU       0.071700
     41 H11         -1.3530     2.2250    -0.9720 hn         1 DXU       0.192500
     42 H12          0.5600     4.4000    -0.4360 h1         1 DXU       0.090700
     43 H13          0.4310     4.0510     2.1260 h4         1 DXU      -0.031800
     44 H14         -1.8840     4.8680    -0.8940 h2         1 DXU       0.070700
     45 H15         -4.6230     5.6060    -0.2670 hc         1 DXU       0.024200
     46 H16         -5.4340     6.3100     1.1390 hc         1 DXU       0.024200
     47 H17         -5.5820     4.5790     0.8080 hc         1 DXU       0.024200
     48 H18         -4.7120     4.1700     3.2130 hc         1 DXU       0.024200
     49 H19         -4.5720     5.9220     3.4150 hc         1 DXU       0.024200
     50 H20         -3.1630     4.8850     3.6810 hc         1 DXU       0.024200
     51 H21         -2.4890     6.7860     2.3710 h1         1 DXU       0.065700
     52 H22         -0.7710     5.5430     1.7390 hn         1 DXU       0.278800
     53 H24         -4.4300     8.7840     0.5630 ho         1 DXU       0.395000
     54 H25         -2.4330     8.7930    -0.6080 ho         1 DXU       0.395000
     55 H23         -3.4220     6.7760    -0.5180 h2         1 DXU       0.004700
@<TRIPOS>BOND
     1     1     2 1   
     2     2     3 ar  
     3     2     8 ar  
     4     3     4 ar  
     5     3    31 1   
     6     4     5 ar  
     7     4    32 1   
     8     5     6 ar  
     9     5    33 1   
    10     6     7 1   
    11     6     8 ar  
    12     8     9 1   
    13     9    10 1   
    14     9    14 1   
    15     9    34 1   
    16    10    11 1   
    17    10    35 1   
    18    11    12 1   
    19    12    13 1   
    20    12    14 1   
    21    12    36 1   
    22    13    37 1   
    23    13    38 1   
    24    13    39 1   
    25    14    15 1   
    26    14    40 1   
    27    15    16 2   
    28    15    17 1   
    29    17    18 1   
    30    17    41 1   
    31    18    19 1   
    32    18    21 1   
    33    18    42 1   
    34    19    20 2   
    35    19    43 1   
    36    21    22 1   
    37    21    27 1   
    38    21    44 1   
    39    22    23 1   
    40    23    24 1   
    41    23    25 1   
    42    23    26 1   
    43    24    45 1   
    44    24    46 1   
    45    24    47 1   
    46    25    48 1   
    47    25    49 1   
    48    25    50 1   
    49    26    27 1   
    50    26    28 1   
    51    26    51 1   
    52    27    52 1   
    53    28    29 1   
    54    28    30 1   
    55    28    55 1   
    56    29    53 1   
    57    30    54 1   
@<TRIPOS>SUBSTRUCTURE
     1 DXU         1 TEMP              0 ****  ****    0 ROOT
