@<TRIPOS>MOLECULE
molecule
   50    54     1     0     0
SMALL
bcc


@<TRIPOS>ATOM
      1 C4           0.0000     0.0000     0.0000 c3         1 DXV      -0.084900
      2 C14         -0.8740     2.8490     6.7180 ca         1 DXV      -0.205100
      3 C5           1.5420     0.0000     0.0000 c3         1 DXV      -0.084900
      4 C6           0.6800    -0.6270     3.5910 ca         1 DXV      -0.057300
      5 C11          0.1760     2.3390     5.8200 cc         1 DXV      -0.047400
      6 C7           0.5170     0.6620     4.0100 ca         1 DXV      -0.132000
      7 C8           0.6840    -1.6690     4.5260 ca         1 DXV      -0.078600
      8 C9           0.3530     0.9420     5.3690 ca         1 DXV      -0.070800
      9 C10          0.5250    -1.3880     5.8860 ca         1 DXV      -0.104000
     10 C12          0.3560    -0.0980     6.3020 ca         1 DXV      -0.141000
     11 C13          0.8550    -3.0620     4.0750 c          1 DXV       0.880200
     12 N1           0.4750     4.5270     6.0990 na         1 DXV      -0.283100
     13 N2          -1.4380     4.9690     7.6090 nb         1 DXV      -0.727000
     14 C3          -0.4400    -0.5910     1.3510 c3         1 DXV      -0.077400
     15 O1           0.3400    -3.4330     3.0380 o          1 DXV      -0.832800
     16 O2           1.5820    -3.9250     4.8130 o          1 DXV      -0.832800
     17 C1           0.8500    -0.9290     2.1250 c3         1 DXV      -0.028400
     18 C2           1.9220     0.0000     1.5020 c3         1 DXV      -0.077400
     19 C15          0.9500     3.4030     5.4890 cd         1 DXV      -0.110100
     20 C16         -0.6390     4.2290     6.8500 ca         1 DXV       0.460800
     21 C17         -1.9500     2.2650     7.3830 ca         1 DXV      -0.022000
     22 C18         -2.7560     3.0870     8.1700 cp         1 DXV      -0.212300
     23 C19         -2.4560     4.4480     8.2590 ca         1 DXV       0.450200
     24 C20         -3.9150     2.5230     8.9020 cp         1 DXV      -0.010000
     25 C21         -4.7170     3.3510     9.6870 ca         1 DXV      -0.127000
     26 C22         -4.2120     1.1650     8.8040 ca         1 DXV      -0.127000
     27 C23         -5.7950     2.8200    10.3660 ca         1 DXV      -0.125500
     28 C24         -5.2920     0.6460     9.4880 ca         1 DXV      -0.125500
     29 C25         -6.0800     1.4700    10.2700 ca         1 DXV      -0.141000
     30 H1          -0.3700    -0.6160    -0.8110 hc         1 DXV       0.028950
     31 H2          -0.3700     1.0140    -0.0980 hc         1 DXV       0.028950
     32 H3           1.9190     0.8920    -0.4850 hc         1 DXV       0.028950
     33 H4           1.9190    -0.8920    -0.4850 hc         1 DXV       0.028950
     34 H5           0.5130     1.4690     3.2870 ha         1 DXV       0.115000
     35 H6           0.5280    -2.1940     6.6100 ha         1 DXV       0.147000
     36 H7           0.2330     0.1190     7.3560 ha         1 DXV       0.111000
     37 H8           0.8770     5.4400     6.0100 hn         1 DXV       0.295700
     38 H9          -1.0200    -1.4910     1.1900 hc         1 DXV       0.042450
     39 H10         -1.0210     0.1380     1.9020 hc         1 DXV       0.042450
     40 H12          1.1190    -1.9670     1.9740 hc         1 DXV       0.128700
     41 H13          2.9140    -0.4110     1.6450 hc         1 DXV       0.042450
     42 H14          1.8480     0.9990     1.9150 hc         1 DXV       0.042450
     43 H15          1.8160     3.3660     4.8390 h4         1 DXV       0.176000
     44 H16         -2.1530     1.2050     7.2920 ha         1 DXV       0.154000
     45 H17         -3.0790     5.0900     8.8690 h4         1 DXV       0.017100
     46 H18         -4.4940     4.4080     9.7620 ha         1 DXV       0.135500
     47 H19         -3.5950     0.5180     8.1920 ha         1 DXV       0.135500
     48 H20         -6.4170     3.4620    10.9780 ha         1 DXV       0.125500
     49 H21         -5.5210    -0.4100     9.4140 ha         1 DXV       0.125500
     50 H22         -6.9270     1.0580    10.8050 ha         1 DXV       0.122000
@<TRIPOS>BOND
     1    12    20 1
     2    12    19 1
     3    13    20 ar
     4    13    23 ar
     5    20     2 ar
     6    19     5 2
     7    23    22 ar
     8     5     2 1
     9     5     8 1
    10     2    21 ar
    11    22    21 ar
    12    22    24 1
    13     8    10 ar
    14     8     6 ar
    15    10     9 ar
    16    26    24 ar
    17    26    28 ar
    18    24    25 ar
    19     6     4 ar
    20    28    29 ar
    21     9     7 ar
    22    25    27 ar
    23    18     3 1
    24    18    17 1
    25     4     7 ar
    26     4    17 1
    27    29    27 ar
    28     7    11 1
    29     3     1 1
    30    17    14 1
    31    15    11 1
    32    11    16 1
    33     1    14 1
    34     1    30 1
    35     1    31 1
    36     3    32 1
    37     3    33 1
    38     6    34 1
    39     9    35 1
    40    10    36 1
    41    12    37 1
    42    14    38 1
    43    14    39 1
    44    17    40 1
    45    18    41 1
    46    18    42 1
    47    19    43 1
    48    21    44 1
    49    23    45 1
    50    25    46 1
    51    26    47 1
    52    27    48 1
    53    28    49 1
    54    29    50 1
@<TRIPOS>SUBSTRUCTURE
     1 DXV         1 TEMP              0 ****  ****    0 ROOT
