@<TRIPOS>MOLECULE
DXW
   51    53     1     0     0
SMALL
bcc


@<TRIPOS>ATOM
      1 N02         1.9330    2.3280    0.8660 nh        1 DXW     -0.930500
      2 C02         2.5180    1.1090    0.5040 ca        1 DXW      0.646200
      3 C03         2.5700    0.0490    1.4630 ca        1 DXW     -0.296300
      4 C04         3.2430   -1.1260    1.1390 ca        1 DXW      0.006700
      5 C05         3.8480   -1.2340   -0.1220 ca        1 DXW     -0.299300
      6 C07         3.3070   -2.2490    2.1020 c3        1 DXW     -0.066800
      7 N01         3.0910    0.9920   -0.7370 nb        1 DXW     -0.742000
      8 C06         3.7430   -0.1570   -1.0190 ca        1 DXW      0.434600
      9 C08         4.4120   -0.2770   -2.3630 c3        1 DXW     -0.109700
     10 C3'         3.7540   -1.3230   -3.2400 c3        1 DXW     -0.085700
     11 C4'         4.5340   -1.5870   -4.5470 c3        1 DXW      0.114100
     12 C5'         3.4780   -1.5000   -5.6780 c3        1 DXW      0.126800
     13 N1'         2.2770   -0.8650   -5.1580 n3        1 DXW     -0.783200
     14 C2'         2.3320   -0.9180   -3.7000 c3        1 DXW      0.142800
     15 O09         5.5080   -0.5430   -4.7000 os        1 DXW     -0.464600
     16 C10         6.5930   -0.8790   -5.5520 c3        1 DXW      0.108400
     17 C11         7.4290    0.4010   -5.6960 c3        1 DXW      0.101800
     18 N12         7.7390    1.0200   -4.3760 n4        1 DXW     -0.765000
     19 C13         8.4420    2.3400   -4.5160 c3        1 DXW      0.114500
     20 C22         8.6820    2.9450   -3.2000 cc        1 DXW      0.091000
     21 O21         7.5260    3.2850   -2.4710 os        1 DXW     -0.371800
     22 C23         7.9690    3.8990   -1.3050 cc        1 DXW      0.317600
     23 C24         9.3520    3.9580   -1.2860 cd        1 DXW     -0.270300
     24 C25         9.8120    3.3390   -2.5060 cd        1 DXW     -0.140300
     25 H1          1.7160    2.9580    0.1270 hn        1 DXW      0.412300
     26 H2          1.2320    2.2540    1.5680 hn        1 DXW      0.412300
     27 H3          2.0940    0.1640    2.4460 ha        1 DXW      0.151000
     28 H4          4.3900   -2.1460   -0.4030 ha        1 DXW      0.138000
     29 H5          4.2590   -2.8220    1.9830 hc        1 DXW      0.056367
     30 H6          2.4510   -2.9490    1.9230 hc        1 DXW      0.056367
     31 H7          3.2430   -1.8800    3.1550 hc        1 DXW      0.056367
     32 H8          5.4820   -0.5700   -2.1870 hc        1 DXW      0.045200
     33 H9          4.4170    0.7080   -2.9020 hc        1 DXW      0.045200
     34 H10         3.6920   -2.2900   -2.6710 hc        1 DXW      0.077700
     35 H11         5.0470   -2.5820   -4.5310 h1        1 DXW      0.062700
     36 H12         3.8900   -0.9530   -6.5660 h1        1 DXW      0.062200
     37 H13         3.2010   -2.5430   -5.9970 h1        1 DXW      0.062200
     38 H14         2.2150    0.0850   -5.4730 hn        1 DXW      0.357800
     39 H16         1.5970   -1.7020   -3.3660 h1        1 DXW      0.071200
     40 H17         2.0280    0.0600   -3.2400 h1        1 DXW      0.071200
     41 H18         7.1930   -1.7130   -5.1000 h1        1 DXW      0.071200
     42 H19         6.2290   -1.1850   -6.5690 h1        1 DXW      0.071200
     43 H20         6.8510    1.1570   -6.3010 hx        1 DXW      0.109700
     44 H21         8.3940    0.1610   -6.2230 hx        1 DXW      0.109700
     45 H22         8.3140    0.3800   -3.8190 hn        1 DXW      0.464800
     46 H24         7.7800    3.0090   -5.1420 hx        1 DXW      0.116200
     47 H25         9.4200    2.1720   -5.0520 hx        1 DXW      0.116200
     48 H26         7.1700    4.2130   -0.6320 h4        1 DXW      0.083100
     49 H27         9.9860    4.3860   -0.5120 ha        1 DXW      0.192000
     50 H28        10.8540    3.2250   -2.8050 ha        1 DXW      0.181000
     51 H122        6.8520    1.1610   -3.8620 hn        1 DXW      0.464800
@<TRIPOS>BOND
     1    1    2 1
     2    1   25 1
     3    1   26 1
     4    2    3 ar
     5    2    7 ar
     6    3    4 ar
     7    3   27 1
     8    4    5 ar
     9    4    6 1
    10    5    8 ar
    11    5   28 1
    12    6   29 1
    13    6   30 1
    14    6   31 1
    15    7    8 ar
    16    8    9 1
    17    9   10 1
    18    9   32 1
    19    9   33 1
    20   10   11 1
    21   10   14 1
    22   10   34 1
    23   11   12 1
    24   11   15 1
    25   11   35 1
    26   12   13 1
    27   12   36 1
    28   12   37 1
    29   13   14 1
    30   13   38 1
    31   14   39 1
    32   14   40 1
    33   15   16 1
    34   16   17 1
    35   16   41 1
    36   16   42 1
    37   17   18 1
    38   17   43 1
    39   17   44 1
    40   18   19 1
    41   18   45 1
    42   18   51 1
    43   19   20 1
    44   19   46 1
    45   19   47 1
    46   20   21 1
    47   20   24 2
    48   21   22 1
    49   22   23 2
    50   22   48 1
    51   23   24 1
    52   23   49 1
    53   24   50 1
@<TRIPOS>SUBSTRUCTURE
     1 DXW         1 TEMP              0 ****  ****    0 ROOT
