@<TRIPOS>MOLECULE
DXX
   12    11     1     0     0
SMALL
bcc


@<TRIPOS>ATOM
      1 C1          0.1820   -0.3980   -0.3200 c         1 DXX      0.927100
      2 OXT         1.0920   -1.2320   -0.6370 o         1 DXX     -0.891800
      3 O1          0.0950    0.0450    0.8660 o         1 DXX     -0.891800
      4 CA         -0.7280    0.1380   -1.4390 c3        1 DXX     -0.260700
      5 CB         -0.5700    1.6400   -1.5130 c3        1 DXX     -0.040100
      6 C          -2.2170   -0.2320   -1.3470 c         1 DXX      0.927100
      7 O          -3.0700    0.6420   -0.9900 o         1 DXX     -0.891800
      8 O2         -2.5940   -1.3840   -1.7330 o         1 DXX     -0.891800
      9 HA         -0.3550   -0.3190   -2.3980 hc        1 DXX      0.019700
     10 HB1         0.4970    1.9230   -1.6910 hc        1 DXX     -0.002300
     11 HB2        -1.1920    2.0640   -2.3390 hc        1 DXX     -0.002300
     12 HB3        -0.9090    2.0890   -0.5480 hc        1 DXX     -0.002300
@<TRIPOS>BOND
     1    1    2 1   
     2    1    3 1   
     3    1    4 1   
     4    4    5 1   
     5    4    6 1   
     6    4    9 1   
     7    5   10 1   
     8    5   11 1   
     9    5   12 1   
    10    6    7 1   
    11    6    8 1   
@<TRIPOS>SUBSTRUCTURE
     1 DXX         1 TEMP              0 ****  ****    0 ROOT
