@<TRIPOS>MOLECULE
molecule
   12    11     1     0     0
SMALL
bcc


@<TRIPOS>ATOM
      1 C1           0.0000     0.0000     0.0000 c          1 DXX       0.892600
      2 OXT          1.3420     0.0000     0.0000 o          1 DXX      -0.875550
      3 O1          -0.6040     0.0000     1.0470 o          1 DXX      -0.875550
      4 CA          -0.7540    -0.0020    -1.3040 c3         1 DXX      -0.265700
      5 CB          -0.3850     1.2460    -2.1070 c3         1 DXX      -0.042100
      6 C           -2.2350    -0.0010    -1.0280 c          1 DXX       0.892600
      7 O           -2.6370    -0.0010     0.1120 o          1 DXX      -0.875550
      8 O2          -3.1080    -0.0020    -2.0460 o          1 DXX      -0.875550
      9 HA          -0.4930    -0.8870    -1.8710 hc         1 DXX       0.020700
     10 HB1         -0.6470     2.1310    -1.5400 hc         1 DXX       0.001367
     11 HB2          0.6800     1.2460    -2.3060 hc         1 DXX       0.001367
     12 HB3         -0.9280     1.2450    -3.0450 hc         1 DXX       0.001367
@<TRIPOS>BOND
     1     1     2 1
     2     1     3 1
     3     1     4 1
     4     4     5 1
     5     4     6 1
     6     4     9 1
     7     5    10 1
     8     5    11 1
     9     5    12 1
    10     6     7 1
    11     6     8 1
@<TRIPOS>SUBSTRUCTURE
     1 DXX         1 TEMP              0 ****  ****    0 ROOT
