@<TRIPOS>MOLECULE
DXY
   58    59     1     0     0
SMALL
bcc


@<TRIPOS>ATOM
      1 OE1        -0.0720   -1.4440   -1.1560 o         1 DXY     -0.875300
      2 CD          1.0200   -1.5930   -1.7800 c         1 DXY      0.908600
      3 OE2         1.5030   -2.7450   -2.0230 o         1 DXY     -0.875300
      4 CG          1.7530   -0.3510   -2.2960 c3        1 DXY     -0.191400
      5 CB          3.0660   -0.0990   -1.5860 c3        1 DXY     -0.075400
      6 CA          4.2270    0.2640   -2.5300 c3        1 DXY     -0.037300
      7 C           5.4350    0.7380   -1.6510 c         1 DXY      0.917600
      8 OXT         5.5590    1.9840   -1.4870 o         1 DXY     -0.850300
      9 O           6.2090   -0.1240   -1.1470 o         1 DXY     -0.850300
     10 N           4.6090   -0.8510   -3.3790 n         1 DXY     -0.482900
     11 CAY         4.0910   -1.0580   -4.6270 c         1 DXY      0.657700
     12 OAF         3.6770   -0.1480   -5.3850 o         1 DXY     -0.655100
     13 CBB         4.1050   -2.4770   -5.1260 ca        1 DXY     -0.116600
     14 CAK         3.4020   -3.4550   -4.4140 ca        1 DXY     -0.100000
     15 CAM         3.3640   -4.7610   -4.9010 ca        1 DXY     -0.141000
     16 CAJ         4.7620   -2.8070   -6.3120 ca        1 DXY     -0.100000
     17 CAL         4.7180   -4.1140   -6.7960 ca        1 DXY     -0.141000
     18 CBC         4.0130   -5.1020   -6.0980 ca        1 DXY     -0.126300
     19 CBG         3.9270   -6.4970   -6.5880 c3        1 DXY      0.119700
     20 SAV         2.5200   -6.7850   -7.7050 ss        1 DXY     -0.448200
     21 CAA         1.4180   -5.4260   -7.5070 c3        1 DXY     -0.005000
     22 CAQ         5.1540   -6.9640   -7.3450 c3        1 DXY     -0.076400
     23 CAN         5.1380   -8.4660   -7.5680 c3        1 DXY     -0.090400
     24 CAP         5.9580   -8.8800   -8.7820 c3        1 DXY     -0.008200
     25 CBD         5.2400   -9.8310   -9.6650 cc        1 DXY     -0.351400
     26 CBE         5.7720  -11.1730   -9.7760 c         1 DXY      0.723700
     27 OAG         6.7860  -11.6340   -9.2150 o         1 DXY     -0.659500
     28 NAU         5.0680  -12.0750  -10.6170 n         1 DXY     -0.501400
     29 CAZ         3.9350  -11.6470  -11.3170 cc        1 DXY      0.665800
     30 NAB         3.3290  -12.5750  -12.2160 nh        1 DXY     -0.882800
     31 NAS         3.4270  -10.4100  -11.2170 nd        1 DXY     -0.725300
     32 CBA         4.1030   -9.4770  -10.4090 cd        1 DXY      0.423600
     33 NAC         3.6300   -8.1740  -10.4300 nh        1 DXY     -0.806600
     34 H1G         1.0820    0.5380   -2.1730 hc        1 DXY      0.023700
     35 H2G         1.9180   -0.4900   -3.3970 hc        1 DXY      0.023700
     36 H1B         3.3520   -1.0030   -0.9850 hc        1 DXY      0.046700
     37 H2B         2.9550    0.7550   -0.8690 hc        1 DXY      0.046700
     38 HA          3.9160    1.1190   -3.1940 h1        1 DXY      0.066700
     39 HN          4.9210   -1.6470   -2.8660 hn        1 DXY      0.312500
     40 HAK         2.8510   -3.1840   -3.4770 ha        1 DXY      0.191000
     41 HAM         2.8120   -5.5260   -4.3340 ha        1 DXY      0.123500
     42 HAJ         5.3030   -2.0260   -6.8670 ha        1 DXY      0.191000
     43 HAL         5.2360   -4.3610   -7.7330 ha        1 DXY      0.123500
     44 HBG         3.7430   -7.1860   -5.7200 h1        1 DXY      0.078700
     45 H1AA        1.7040   -4.5790   -8.1680 h1        1 DXY      0.071033
     46 H2AA        0.4090   -5.8000   -7.7900 h1        1 DXY      0.071033
     47 H3AA        1.3990   -5.0610   -6.4530 h1        1 DXY      0.071033
     48 H1AQ        5.2090   -6.4260   -8.3290 hc        1 DXY      0.055200
     49 H2AQ        6.0710   -6.6770   -6.7640 hc        1 DXY      0.055200
     50 H1AN        4.0770   -8.8190   -7.6800 hc        1 DXY      0.048200
     51 H2AN        5.5420   -8.9780   -6.6550 hc        1 DXY      0.048200
     52 H1AP        6.2500   -7.9740   -9.3830 hc        1 DXY      0.054700
     53 H2AP        6.9170   -9.3530   -8.4330 hc        1 DXY      0.054700
     54 HNAU        5.4410  -12.9880  -10.7500 hn        1 DXY      0.326500
     55 H1AB        2.4970  -12.2190  -12.6410 hn        1 DXY      0.401300
     56 H2AB        3.1900  -13.4780  -11.8140 hn        1 DXY      0.401300
     57 H1AC        2.7270   -8.0250  -10.8220 hn        1 DXY      0.433800
     58 H2AC        3.8190   -7.6260   -9.6090 hn        1 DXY      0.433800
@<TRIPOS>BOND
     1    1    2 1   
     2    2    3 1   
     3    2    4 1   
     4    4    5 1   
     5    4   34 1   
     6    4   35 1   
     7    5    6 1   
     8    5   36 1   
     9    5   37 1   
    10    6    7 1   
    11    6   10 1   
    12    6   38 1   
    13    7    8 1   
    14    7    9 1   
    15   10   11 1   
    16   10   39 1   
    17   11   12 2   
    18   11   13 1   
    19   13   14 ar  
    20   13   16 ar  
    21   14   15 ar  
    22   14   40 1   
    23   15   18 ar  
    24   15   41 1   
    25   16   17 ar  
    26   16   42 1   
    27   17   18 ar  
    28   17   43 1   
    29   18   19 1   
    30   19   20 1   
    31   19   22 1   
    32   19   44 1   
    33   20   21 1   
    34   21   45 1   
    35   21   46 1   
    36   21   47 1   
    37   22   23 1   
    38   22   48 1   
    39   22   49 1   
    40   23   24 1   
    41   23   50 1   
    42   23   51 1   
    43   24   25 1   
    44   24   52 1   
    45   24   53 1   
    46   25   26 1   
    47   25   32 2   
    48   26   27 2   
    49   26   28 1   
    50   28   29 1   
    51   28   54 1   
    52   29   30 1   
    53   29   31 2   
    54   30   55 1   
    55   30   56 1   
    56   31   32 1   
    57   32   33 1   
    58   33   57 1   
    59   33   58 1   
@<TRIPOS>SUBSTRUCTURE
     1 DXY         1 TEMP              0 ****  ****    0 ROOT
