@<TRIPOS>MOLECULE
molecule
   60    61     1     0     0
SMALL
bcc


@<TRIPOS>ATOM
      1 OE1          0.0000     0.0000     0.0000 o          1 DXY      -0.661800
      2 CD           1.3420     0.0000     0.0000 c          1 DXY       0.881600
      3 OE2          1.9470     0.0000     1.0470 o          1 DXY      -0.661800
      4 CG           2.0970     0.0010    -1.3050 c3         1 DXY      -0.132400
      5 CB           3.6000     0.0020    -1.0240 c3         1 DXY      -0.077400
      6 CA           4.3660     0.0020    -2.3490 c3         1 DXY       0.066700
      7 C            5.8430     0.1260    -2.0760 c          1 DXY       0.879600
      8 OXT          6.3170     1.2010    -1.4270 o          1 DXY      -0.625800
      9 O            6.6000    -0.7420    -2.4420 o          1 DXY      -0.625800
     10 N            4.1050    -1.2490    -3.0660 ns         1 DXY      -0.534900
     11 CAY          4.2250    -1.2960    -4.4070 c          1 DXY       0.673700
     12 OAF          4.5500    -0.3000    -5.0230 o          1 DXY      -0.584100
     13 CBB          3.9620    -2.5600    -5.1280 ca         1 DXY      -0.132600
     14 CAK          3.5820    -3.7030    -4.4250 ca         1 DXY      -0.081500
     15 CAM          3.3380    -4.8790    -5.1040 ca         1 DXY      -0.127000
     16 CAJ          4.0860    -2.6120    -6.5180 ca         1 DXY      -0.081500
     17 CAL          3.8390    -3.7940    -7.1860 ca         1 DXY      -0.127000
     18 CBC          3.4680    -4.9260    -6.4810 ca         1 DXY      -0.081300
     19 CBG          3.2000    -6.2130    -7.2170 c3         1 DXY       0.085700
     20 SAV          1.8490    -5.9610    -8.4010 ss         1 DXY      -0.392200
     21 CAA          0.4190    -5.6490    -7.3290 c3         1 DXY       0.017000
     22 CAQ          4.4620    -6.6440    -7.9670 c3         1 DXY      -0.062400
     23 CAN          4.2360    -8.0200    -8.5960 c3         1 DXY      -0.084400
     24 CAP          5.5370    -8.5080    -9.2370 c3         1 DXY       0.009800
     25 CBD          5.3140    -9.8630    -9.8560 cc         1 DXY      -0.399400
     26 CBE          5.4150   -11.0260    -9.0840 c          1 DXY       0.762700
     27 OAG          5.6850   -10.9590    -7.8950 o          1 DXY      -0.644500
     28 NAU          5.2080   -12.2200    -9.6760 ns         1 DXY      -0.492400
     29 CAZ          4.9070   -12.2840   -11.0010 cc         1 DXY       0.226800
     30 NAB          4.7020   -13.5060   -11.5840 nz         1 DXY      -0.662600
     31 NAS          4.8090   -11.1960   -11.7340 nd         1 DXY      -0.633300
     32 CBA          4.9990    -9.9830   -11.2020 cd         1 DXY       0.099600
     33 NAC          4.8870    -8.8550   -11.9910 nz         1 DXY      -0.620400
     34 H1G          1.8350     0.8860    -1.8730 hc         1 DXY       0.064200
     35 H2G          1.8360    -0.8830    -1.8740 hc         1 DXY       0.064200
     36 H1B          3.8620    -0.8830    -0.4560 hc         1 DXY       0.088700
     37 H2B          3.8610     0.8860    -0.4560 hc         1 DXY       0.088700
     38 HA           4.0390     0.8390    -2.9540 h1         1 DXY       0.117700
     39 HN           3.8600    -2.0750    -2.5560 hn         1 DXY       0.327500
     40 HAK          3.4800    -3.6680    -3.3470 ha         1 DXY       0.148000
     41 HAM          3.0450    -5.7680    -4.5590 ha         1 DXY       0.136000
     42 HAJ          4.3760    -1.7270    -7.0710 ha         1 DXY       0.148000
     43 HAL          3.9370    -3.8360    -8.2640 ha         1 DXY       0.136000
     44 HBG          2.9210    -6.9830    -6.5080 h1         1 DXY       0.076700
     45 H1AA        -0.4720    -6.0650    -7.7850 h1         1 DXY       0.064700
     46 H2AA         0.5820    -6.1150    -6.3650 h1         1 DXY       0.064700
     47 H3AA         0.2920    -4.5810    -7.1970 h1         1 DXY       0.064700
     48 H1AQ         5.2940    -6.6950    -7.2750 hc         1 DXY       0.057200
     49 H2AQ         4.6830    -5.9230    -8.7450 hc         1 DXY       0.057200
     50 H1AN         3.9250    -8.7200    -7.8300 hc         1 DXY       0.051200
     51 H2AN         3.4650    -7.9480    -9.3540 hc         1 DXY       0.051200
     52 H1AP         6.3080    -8.5800    -8.4790 hc         1 DXY       0.036200
     53 H2AP         5.8470    -7.8080   -10.0030 hc         1 DXY       0.036200
     54 HNAU         5.2770   -13.0610    -9.1380 hn         1 DXY       0.316500
     55 H1AB         5.5240   -14.0670   -11.4810 hn         1 DXY       0.430800
     56 H2AB         4.5010   -13.3820   -12.5560 hn         1 DXY       0.430800
     57 H1AC         4.7940    -9.1260   -12.9500 hn         1 DXY       0.445800
     58 H2AC         4.0800    -8.3320   -11.7120 hn         1 DXY       0.445800
     59 HAB3         3.9540   -13.9770   -11.1150 hn         1 DXY       0.430800
     60 HAC3         5.7190    -8.3050   -11.9070 hn         1 DXY       0.445800
@<TRIPOS>BOND
     1     3     2 1
     2     2     1 1
     3     2     4 1
     4     4     5 1
     5     5     6 1
     6    21    20 1
     7     6    10 1
     8     6     7 1
     9    20    19 1
    10    12    11 2
    11    10    11 1
    12    11    13 1
    13    13    16 ar
    14    13    14 ar
    15    16    17 ar
    16    14    15 ar
    17    17    18 ar
    18    15    18 ar
    19     9     7 1
    20     7     8 1
    21    18    19 1
    22    19    22 1
    23    22    23 1
    24    23    24 1
    25    24    25 1
    26    33    32 1
    27    25    32 2
    28    25    26 1
    29    32    31 1
    30    26    27 2
    31    26    28 1
    32    31    29 2
    33    28    29 1
    34    29    30 1
    35     4    34 1
    36     4    35 1
    37     5    36 1
    38     5    37 1
    39     6    38 1
    40    10    39 1
    41    14    40 1
    42    15    41 1
    43    16    42 1
    44    17    43 1
    45    19    44 1
    46    21    45 1
    47    21    46 1
    48    21    47 1
    49    22    48 1
    50    22    49 1
    51    23    50 1
    52    23    51 1
    53    24    52 1
    54    24    53 1
    55    28    54 1
    56    30    55 1
    57    30    56 1
    58    33    57 1
    59    33    58 1
    60    59    30 1
    61    60    33 1
@<TRIPOS>SUBSTRUCTURE
     1 DXY         1 TEMP              0 ****  ****    0 ROOT
