@<TRIPOS>MOLECULE
DXZ
   58    59     1     0     0
SMALL
bcc


@<TRIPOS>ATOM
      1 OE1        -0.9010    1.6900   -2.6640 o         1 DXZ     -0.871300
      2 CD         -0.5430    0.8300   -3.5240 c         1 DXZ      0.904600
      3 OE2        -1.2410   -0.1970   -3.7890 o         1 DXZ     -0.871300
      4 CG          0.8040    0.9970   -4.2400 c3        1 DXZ     -0.183400
      5 CB          0.9240    2.3260   -4.9450 c3        1 DXZ     -0.049400
      6 CA          2.3180    2.5700   -5.5410 c3        1 DXZ     -0.042300
      7 C           2.2530    3.8040   -6.4990 c         1 DXZ      0.899600
      8 OXT         1.9100    3.6230   -7.6960 o         1 DXZ     -0.862800
      9 O           2.5820    4.9470   -6.0400 o         1 DXZ     -0.862800
     10 N           3.3260    2.7890   -4.5050 n         1 DXZ     -0.468900
     11 CAY         4.6390    2.4170   -4.7080 c         1 DXZ      0.647700
     12 OAF         4.9970    1.3660   -5.2860 o         1 DXZ     -0.630100
     13 CBB         5.6850    3.3480   -4.1540 ca        1 DXZ     -0.113600
     14 CAK         6.7930    3.6260   -4.9620 ca        1 DXZ     -0.100000
     15 CAM         7.6780    4.6400   -4.6100 ca        1 DXZ     -0.135000
     16 CAJ         5.5280    4.0220   -2.9410 ca        1 DXZ     -0.100000
     17 CAL         6.4150    5.0360   -2.5870 ca        1 DXZ     -0.135000
     18 CBC         7.4680    5.3870   -3.4420 ca        1 DXZ     -0.105300
     19 CBG         8.2860    6.6040   -3.1980 c3        1 DXZ      0.084700
     20 SAV         9.0010    6.7110   -1.5550 ss        1 DXZ     -0.349200
     21 CAA         9.6640    5.1130   -1.2690 c3        1 DXZ     -0.031000
     22 CAQ         7.4510    7.8660   -3.3540 c3        1 DXZ     -0.065400
     23 CAN         7.0440    8.0820   -4.8000 c3        1 DXZ     -0.082400
     24 CAP         5.8110    8.9630   -4.9010 c3        1 DXZ      0.012800
     25 CBD         5.3790    9.1880   -6.3000 cc        1 DXZ     -0.425400
     26 CBE         5.7280   10.4490   -6.8980 c         1 DXZ      0.727700
     27 OAG         6.3790   11.3850   -6.3790 o         1 DXZ     -0.703500
     28 NAU         5.2790   10.6840   -8.2250 n         1 DXZ     -0.503400
     29 CAZ         4.5540    9.6980   -8.9030 cc        1 DXZ      0.646800
     30 NAB         4.2130    9.9660  -10.2730 nh        1 DXZ     -0.876800
     31 NAS         4.2050    8.5290   -8.3600 nd        1 DXZ     -0.698300
     32 CBA         4.6340    8.2380   -7.0450 cd        1 DXZ      0.462600
     33 NAC         4.3350    7.0030   -6.5660 nh        1 DXZ     -0.782600
     34 H1G         1.6070    0.8980   -3.4650 hc        1 DXZ      0.021700
     35 H2G         0.9340    0.1630   -4.9750 hc        1 DXZ      0.021700
     36 H1B         0.2000    2.3680   -5.8010 hc        1 DXZ      0.052200
     37 H2B         0.6520    3.1490   -4.2330 hc        1 DXZ      0.052200
     38 HA          2.6200    1.6680   -6.1450 h1        1 DXZ      0.072700
     39 HN          3.2060    3.6950   -4.0910 hn        1 DXZ      0.295500
     40 HAK         6.9320    3.0540   -5.8940 ha        1 DXZ      0.153000
     41 HAM         8.5220    4.8830   -5.2720 ha        1 DXZ      0.128500
     42 HAJ         4.6870    3.7750   -2.2730 ha        1 DXZ      0.153000
     43 HAL         6.2740    5.5900   -1.6470 ha        1 DXZ      0.128500
     44 HBG         9.1380    6.6350   -3.9280 h1        1 DXZ      0.063700
     45 H1AA        9.9230    5.0680   -0.1870 h1        1 DXZ      0.059700
     46 H2AA       10.5800    4.9330   -1.8720 h1        1 DXZ      0.059700
     47 H3AA        8.9200    4.3170   -1.5040 h1        1 DXZ      0.059700
     48 H1AQ        6.5350    7.7800   -2.7100 hc        1 DXZ      0.051200
     49 H2AQ        8.0390    8.7490   -2.9890 hc        1 DXZ      0.051200
     50 H1AN        6.8390    7.0910   -5.2860 hc        1 DXZ      0.047200
     51 H2AN        7.8890    8.5580   -5.3620 hc        1 DXZ      0.047200
     52 H1AP        6.0380    9.9560   -4.4230 hc        1 DXZ      0.043700
     53 H2AP        4.9740    8.5010   -4.3090 hc        1 DXZ      0.043700
     54 HNAU        5.5550   11.5230   -8.6810 hn        1 DXZ      0.319500
     55 H1AB        3.6430   10.7830  -10.3510 hn        1 DXZ      0.391300
     56 H2AB        3.7700    9.1770  -10.7040 hn        1 DXZ      0.391300
     57 H1AC        3.6760    6.3830   -7.0200 hn        1 DXZ      0.478300
     58 H2AC        4.4820    6.8230   -5.5990 hn        1 DXZ      0.478300
@<TRIPOS>BOND
     1    1    2 1   
     2    2    3 1   
     3    2    4 1   
     4    4    5 1   
     5    4   34 1   
     6    4   35 1   
     7    5    6 1   
     8    5   36 1   
     9    5   37 1   
    10    6    7 1   
    11    6   10 1   
    12    6   38 1   
    13    7    8 1   
    14    7    9 1   
    15   10   11 1   
    16   10   39 1   
    17   11   12 2   
    18   11   13 1   
    19   13   14 ar  
    20   13   16 ar  
    21   14   15 ar  
    22   14   40 1   
    23   15   18 ar  
    24   15   41 1   
    25   16   17 ar  
    26   16   42 1   
    27   17   18 ar  
    28   17   43 1   
    29   18   19 1   
    30   19   20 1   
    31   19   22 1   
    32   19   44 1   
    33   20   21 1   
    34   21   45 1   
    35   21   46 1   
    36   21   47 1   
    37   22   23 1   
    38   22   48 1   
    39   22   49 1   
    40   23   24 1   
    41   23   50 1   
    42   23   51 1   
    43   24   25 1   
    44   24   52 1   
    45   24   53 1   
    46   25   26 1   
    47   25   32 2   
    48   26   27 2   
    49   26   28 1   
    50   28   29 1   
    51   28   54 1   
    52   29   30 1   
    53   29   31 2   
    54   30   55 1   
    55   30   56 1   
    56   31   32 1   
    57   32   33 1   
    58   33   57 1   
    59   33   58 1   
@<TRIPOS>SUBSTRUCTURE
     1 DXZ         1 TEMP              0 ****  ****    0 ROOT
