@<TRIPOS>MOLECULE
molecule
   60    61     1     0     0
SMALL
bcc


@<TRIPOS>ATOM
      1 OE1          0.0000     0.0000     0.0000 o          1 DXZ      -0.658300
      2 CD           1.2080     0.0000     0.0000 c          1 DXZ       0.882600
      3 OE2          1.8790     0.0000     1.1620 o          1 DXZ      -0.658300
      4 CG           1.9620    -0.0070    -1.3050 c3         1 DXZ      -0.131400
      5 CB           0.9670    -0.0130    -2.4680 c3         1 DXZ      -0.077400
      6 CA           1.7330    -0.0190    -3.7930 c3         1 DXZ       0.065700
      7 C            0.7580    -0.1490    -4.9350 c          1 DXZ       0.879600
      8 OXT         -0.0410    -1.2250    -5.0170 o          1 DXZ      -0.631300
      9 O            0.6960     0.7150    -5.7780 o          1 DXZ      -0.631300
     10 N            2.4830     1.2310    -3.9300 ns         1 DXZ      -0.534900
     11 CAY          3.5840     1.2760    -4.7060 c          1 DXZ       0.673700
     12 OAF          3.9550     0.2770    -5.2910 o          1 DXZ      -0.586100
     13 CBB          4.3410     2.5380    -4.8440 ca         1 DXZ      -0.134600
     14 CAK          5.4820     2.5870    -5.6450 ca         1 DXZ      -0.081500
     15 CAM          6.1830     3.7680    -5.7710 ca         1 DXZ      -0.129500
     16 CAJ          3.9130     3.6890    -4.1780 ca         1 DXZ      -0.081500
     17 CAL          4.6240     4.8630    -4.3120 ca         1 DXZ      -0.129500
     18 CBC          5.7580     4.9030    -5.1040 ca         1 DXZ      -0.081300
     19 CBG          6.5290     6.1900    -5.2450 c3         1 DXZ       0.072700
     20 SAV          7.1190     6.7230    -3.6130 ss         1 DXZ      -0.338200
     21 CAA          8.2830     5.4120    -3.1520 c3         1 DXZ       0.002000
     22 CAQ          5.6190     7.2690    -5.8350 c3         1 DXZ      -0.062400
     23 CAN          6.4320     8.5380    -6.0950 c3         1 DXZ      -0.084400
     24 CAP          5.5220     9.6150    -6.6860 c3         1 DXZ       0.009800
     25 CBD          6.3240    10.8660    -6.9410 cc         1 DXZ      -0.397400
     26 CBE          6.5380    11.7960    -5.9200 c          1 DXZ       0.761700
     27 OAG          6.0790    11.6090    -4.8030 o          1 DXZ      -0.638500
     28 NAU          7.2620    12.9020    -6.1870 ns         1 DXZ      -0.491400
     29 CAZ          7.7700    13.1020    -7.4340 cc         1 DXZ       0.227800
     30 NAB          8.5020    14.2320    -7.6870 nz         1 DXZ      -0.665600
     31 NAS          7.5730    12.2310    -8.4010 nd         1 DXZ      -0.633300
     32 CBA          6.8680    11.1130    -8.1930 cd         1 DXZ       0.094600
     33 NAC          6.6790    10.2120    -9.2210 nz         1 DXZ      -0.619400
     34 H1G          2.5850     0.8770    -1.3670 hc         1 DXZ       0.064700
     35 H2G          2.5840    -0.8920    -1.3580 hc         1 DXZ       0.064700
     36 H1B          0.3440     0.8720    -2.4150 hc         1 DXZ       0.088200
     37 H2B          0.3440    -0.8970    -2.4070 hc         1 DXZ       0.088200
     38 HA           2.4210    -0.8560    -3.8090 h1         1 DXZ       0.117700
     39 HN           2.1580     2.0620    -3.4750 hn         1 DXZ       0.327500
     40 HAK          5.8160     1.6990    -6.1690 ha         1 DXZ       0.148000
     41 HAM          7.0710     3.8070    -6.3920 ha         1 DXZ       0.137000
     42 HAJ          3.0260     3.6590    -3.5570 ha         1 DXZ       0.148000
     43 HAL          4.2950     5.7560    -3.7940 ha         1 DXZ       0.137000
     44 HBG          7.3770     6.0330    -5.9020 h1         1 DXZ       0.060700
     45 H1AA         7.7730     4.6750    -2.5420 h1         1 DXZ       0.063033
     46 H2AA         8.6650     4.9370    -4.0470 h1         1 DXZ       0.063033
     47 H3AA         9.1040     5.8390    -2.5900 h1         1 DXZ       0.063033
     48 H1AQ         5.1960     6.9140    -6.7680 hc         1 DXZ       0.056200
     49 H2AQ         4.8200     7.4880    -5.1380 hc         1 DXZ       0.056200
     50 H1AN         7.2320     8.3180    -6.7920 hc         1 DXZ       0.050700
     51 H2AN         6.8540     8.8930    -5.1620 hc         1 DXZ       0.050700
     52 H1AP         4.7220     9.8350    -5.9880 hc         1 DXZ       0.036200
     53 H2AP         5.1000     9.2600    -7.6180 hc         1 DXZ       0.036200
     54 HNAU         7.4250    13.5790    -5.4680 hn         1 DXZ       0.317500
     55 H1AB         9.2810    14.2720    -7.0610 hn         1 DXZ       0.433467
     56 H2AB         8.8340    14.2090    -8.6310 hn         1 DXZ       0.433467
     57 H1AC         5.7090     9.9750    -9.2830 hn         1 DXZ       0.444133
     58 H2AC         7.2140     9.3850    -9.0430 hn         1 DXZ       0.444133
     59 HAB3         7.9160    15.0380    -7.5920 hn         1 DXZ       0.433467
     60 HAC3         6.9390    10.6370   -10.0890 hn         1 DXZ       0.444133
@<TRIPOS>BOND
     1     1     2 1
     2     2     3 1
     3     2     4 1
     4     4     5 1
     5     5     6 1
     6     6    10 1
     7     6     7 1
     8    20    21 1
     9    20    19 1
    10    12    11 2
    11    10    11 1
    12    11    13 1
    13    13    14 ar
    14    13    16 ar
    15    14    15 ar
    16    16    17 ar
    17    15    18 ar
    18     7     9 1
    19     7     8 1
    20    17    18 ar
    21    18    19 1
    22    19    22 1
    23    22    23 1
    24    23    24 1
    25    24    25 1
    26    33    32 1
    27    25    32 2
    28    25    26 1
    29    32    31 1
    30    31    29 2
    31    26    27 2
    32    26    28 1
    33    29    28 1
    34    29    30 1
    35     4    34 1
    36     4    35 1
    37     5    36 1
    38     5    37 1
    39     6    38 1
    40    10    39 1
    41    14    40 1
    42    15    41 1
    43    16    42 1
    44    17    43 1
    45    19    44 1
    46    21    45 1
    47    21    46 1
    48    21    47 1
    49    22    48 1
    50    22    49 1
    51    23    50 1
    52    23    51 1
    53    24    52 1
    54    24    53 1
    55    28    54 1
    56    30    55 1
    57    30    56 1
    58    33    57 1
    59    33    58 1
    60    59    30 1
    61    60    33 1
@<TRIPOS>SUBSTRUCTURE
     1 DXZ         1 TEMP              0 ****  ****    0 ROOT
