@<TRIPOS>MOLECULE
molecule
   56    59     1     0     0
SMALL
bcc


@<TRIPOS>ATOM
      1 C2           0.0000     0.0000     0.0000 ca         1 DY1      -0.057000
      2 C3           1.3770     0.0000     0.0000 ca         1 DY1      -0.246500
      3 C5           1.3560    -0.0010     2.4170 ca         1 DY1      -0.086800
      4 C7           3.5700    -0.0190     2.8800 cc         1 DY1      -0.001300
      5 C9           4.0250    -0.6370    -0.7610 c3         1 DY1       0.237900
      6 C10          5.6620    -0.8180     1.0930 ca         1 DY1      -0.421300
      7 C11          5.4370    -2.0710     1.6330 ca         1 DY1       0.062000
      8 C12          6.4960    -2.8100     2.1260 ca         1 DY1      -0.445500
      9 C13          7.7800    -2.2970     2.0790 ca         1 DY1       0.200700
     10 C15          6.9450    -0.3050     1.0460 ca         1 DY1       0.062000
     11 C20          4.5970    -0.4620     5.0840 c3         1 DY1      -0.097400
     12 C21          3.4510     0.3800     5.6530 c3         1 DY1      -0.085400
     13 C22          2.1390    -0.0020     4.9650 c3         1 DY1       0.001800
     14 C1          -0.7090     0.0050     1.1960 ca         1 DY1       0.060900
     15 S            2.2580     0.0010    -1.5250 sy         1 DY1       1.291300
     16 O2           2.8740    -1.2790    -1.5750 o          1 DY1      -0.603800
     17 O3           1.2890     0.3870    -2.4890 o          1 DY1      -0.603800
     18 C23          3.5080     1.3000    -1.3250 c3         1 DY1      -0.091300
     19 C4           2.0720     0.0000     1.2050 ca         1 DY1       0.006800
     20 N            3.4140    -0.0110     1.5240 na         1 DY1      -0.057400
     21 C8           4.5090    -0.0140     0.5500 c3         1 DY1       0.099300
     22 C14          8.0040    -1.0450     1.5380 ca         1 DY1      -0.445500
     23 C16          8.9340    -3.1030     2.6170 c3         1 DY1       0.683200
     24 F2           8.5130    -3.8290     3.7370 f          1 DY1      -0.248300
     25 F1           9.3850    -3.9870     1.6300 f          1 DY1      -0.248300
     26 F            9.9730    -2.2420     2.9830 f          1 DY1      -0.248300
     27 C17          4.8780    -0.0340     3.6390 c3         1 DY1       0.012500
     28 O1           6.9900    -0.8270     5.0330 o          1 DY1      -0.642300
     29 O            8.0030    -2.0890     3.5290 o          1 DY1      -0.642300
     30 C6           2.3620    -0.0010     3.4740 cd         1 DY1      -0.179400
     31 C           -0.0410     0.0090     2.4010 ca         1 DY1      -0.082000
     32 H1          -0.5360     0.0040    -0.9410 ha         1 DY1       0.160000
     33 H2           3.6630    -1.6400    -0.5710 hc         1 DY1      -0.151633
     34 H3           4.8460    -0.6770    -1.4660 hc         1 DY1      -0.151633
     35 H4           3.2240    -0.0350    -1.1720 hc         1 DY1      -0.151633
     36 H5           4.4320    -2.4720     1.6700 ha         1 DY1       0.111500
     37 H6           6.3210    -3.7920     2.5490 ha         1 DY1       0.133500
     38 H7           7.1210     0.6760     0.6230 ha         1 DY1       0.111500
     39 H8           6.2220    -0.6090     2.0640 hc         1 DY1       0.221200
     40 H9           5.3150    -1.9520     2.7750 hc         1 DY1       0.221200
     41 H10          4.3170    -1.5080     5.1020 hc         1 DY1       0.078700
     42 H11          5.4860    -0.3100     5.6840 hc         1 DY1       0.078700
     43 H12          3.6550     1.4290     5.4790 hc         1 DY1       0.032700
     44 H13          3.3650     0.1970     6.7170 hc         1 DY1       0.032700
     45 H14          1.3730     0.7220     5.2180 hc         1 DY1       0.035200
     46 H15          1.8340    -0.9900     5.2870 hc         1 DY1       0.035200
     47 H16          4.4660     0.9370    -1.6770 h1         1 DY1       0.082700
     48 H17          3.5860     1.5690    -0.2790 h1         1 DY1       0.082700
     49 H18          3.2190     2.1710    -1.9010 h1         1 DY1       0.082700
     50 H19          4.8330     1.0040     0.3680 h1         1 DY1       0.056700
     51 H20          9.0090    -0.6430     1.5010 ha         1 DY1       0.133500
     52 H21          5.3120     0.9590     3.6330 hc         1 DY1       0.062700
     53 H23         -0.5960     0.0130     3.3310 ha         1 DY1       0.137000
     54 C18          5.8400    -1.0280     2.9870 c3         1 DY1      -0.389400
     55 F3          -2.0600     0.0050     1.1760 f          1 DY1      -0.157900
     56 C19          6.9860    -1.3070     3.9250 c          1 DY1       0.928600
@<TRIPOS>BOND
     1    13    12 1
     2    13    30 1
     3    12    11 1
     4    55    14 1
     5    31    14 ar
     6    31     3 ar
     7    14     1 ar
     8    30     3 1
     9    30     4 2
    10     3    19 ar
    11    11    27 1
    12    28    56 1
    13     1     2 ar
    14     4    27 1
    15     4    20 1
    16    27    54 1
    17    54    56 1
    18    19     2 ar
    19    19    20 1
    20    56    29 1
    21     2    15 1
    22    20    21 1
    23     7     8 ar
    24     7     6 ar
    25     8     9 ar
    26    24    23 1
    27    21     6 1
    28    21     5 1
    29    15    18 1
    30    15    16 2
    31    15    17 2
    32     6    10 ar
    33     9    23 1
    34     9    22 ar
    35    23    25 1
    36    23    26 1
    37    10    22 ar
    38     1    32 1
    39     5    33 1
    40     5    34 1
    41     5    35 1
    42     7    36 1
    43     8    37 1
    44    10    38 1
    45    54    39 1
    46    54    40 1
    47    11    41 1
    48    11    42 1
    49    12    43 1
    50    12    44 1
    51    13    45 1
    52    13    46 1
    53    18    47 1
    54    18    48 1
    55    18    49 1
    56    21    50 1
    57    22    51 1
    58    27    52 1
    59    31    53 1
@<TRIPOS>SUBSTRUCTURE
     1 DY1         1 TEMP              0 ****  ****    0 ROOT
