@<TRIPOS>MOLECULE
molecule
   48    51     1     0     0
SMALL
bcc


@<TRIPOS>ATOM
      1 C12          0.0000     0.0000     0.0000 ca         1 DY2       0.434200
      2 C15         -0.0170     0.0120     2.4040 ca         1 DY2      -0.051000
      3 C16          2.1710     0.0070     3.6130 cp         1 DY2      -0.054000
      4 C20          4.2990     0.0010     4.7240 ca         1 DY2      -0.164500
      5 C19          3.6520     0.0180     5.9530 ca         1 DY2       0.126100
      6 C18          2.2660     0.0180     6.0110 ca         1 DY2      -0.164500
      7 C11         -8.3200     2.5530     3.7230 c3         1 DY2       0.127700
      8 C6          -4.2580    -0.8580     0.2930 ca         1 DY2       0.162100
      9 C5          -4.9390     0.0140     1.1720 ca         1 DY2      -0.210300
     10 C3          -4.8620     1.7210     2.9040 ca         1 DY2      -0.215300
     11 C2          -6.2380     1.7400     2.9140 ca         1 DY2       0.152100
     12 N1           1.3170     0.0000     0.0000 nb         1 DY2      -0.688000
     13 C8          -2.8760    -0.8510     0.3110 ca         1 DY2      -0.232600
     14 C9          -2.1030    -1.7620    -0.6080 c3         1 DY2      -0.042800
     15 C10         -0.7160     0.0060     1.1970 cp         1 DY2      -0.265800
     16 N           -2.8510     0.8160     2.0010 nb         1 DY2      -0.687000
     17 C           -6.3410     0.0580     1.2070 ca         1 DY2      -0.067000
     18 O           -4.9410    -1.6830    -0.5400 oh         1 DY2      -0.512100
     19 C1          -6.9710     0.9070     2.0640 ca         1 DY2      -0.205000
     20 C13          2.0150     0.0000     1.1190 ca         1 DY2       0.432200
     21 C14          1.3770     0.0010     2.3580 cp         1 DY2      -0.163300
     22 C17          1.5250     0.0180     4.8480 ca         1 DY2      -0.085000
     23 C21          3.5640    -0.0050     3.5570 ca         1 DY2      -0.085000
     24 C22          3.6510     0.0410     8.3300 c3         1 DY2       0.795700
     25 C4          -4.1860     0.8540     2.0290 ca         1 DY2       0.465600
     26 C7          -2.1990     0.0060     1.1850 cp         1 DY2       0.513800
     27 F            4.5470     0.0430     9.4030 f          1 DY2      -0.204300
     28 F1           2.8370    -1.0950     8.4050 f          1 DY2      -0.204300
     29 F2           2.8550     1.1890     8.3840 f          1 DY2      -0.204300
     30 O2           4.3800     0.0230     7.1010 os         1 DY2      -0.339900
     31 H1          -0.5340    -0.0030    -0.9420 h4         1 DY2       0.034100
     32 H2          -0.5430     0.0170     3.3510 ha         1 DY2       0.156000
     33 H3           5.3810    -0.0040     4.6830 ha         1 DY2       0.151500
     34 H4           1.7650     0.0280     6.9720 ha         1 DY2       0.151500
     35 H5          -8.6610     2.8180     2.7300 h1         1 DY2       0.043033
     36 H6          -8.6680     1.5580     3.9720 h1         1 DY2       0.043033
     37 H7          -8.7130     3.2630     4.4410 h1         1 DY2       0.043033
     38 H8          -4.3040     2.3710     3.5670 ha         1 DY2       0.165000
     39 H9          -1.8290    -1.2220    -1.5060 hc         1 DY2       0.050700
     40 H10         -2.7170    -2.6150    -0.8720 hc         1 DY2       0.050700
     41 H11         -1.2060    -2.1050    -0.1050 hc         1 DY2       0.050700
     42 H12         -6.9210    -0.5830     0.5530 ha         1 DY2       0.143000
     43 H13         -5.1770    -2.4700    -0.0780 ho         1 DY2       0.427000
     44 H14         -8.0540     0.9380     2.0870 ha         1 DY2       0.139000
     45 H15          3.0970    -0.0040     1.0740 h4         1 DY2       0.026100
     46 H16          0.4430     0.0180     4.8940 ha         1 DY2       0.144000
     47 H17          4.0690    -0.0180     2.5990 ha         1 DY2       0.144000
     48 O1          -6.8920     2.5790     3.7590 os         1 DY2      -0.323900
@<TRIPOS>BOND
     1     7    48 1
     2    19    17 ar
     3    19    11 ar
     4    48    11 1
     5    17     9 ar
     6    11    10 ar
     7    18     8 1
     8     9     8 ar
     9     9    25 ar
    10    10    25 ar
    11     8    13 ar
    12    25    16 ar
    13    13    14 1
    14    13    26 ar
    15    16    26 ar
    16    26    15 1
    17    15     2 ar
    18    15     1 ar
    19     2    21 ar
    20    22     6 ar
    21    22     3 ar
    22     1    12 ar
    23     6     5 ar
    24    21     3 1
    25    21    20 ar
    26     3    23 ar
    27    12    20 ar
    28     5    30 1
    29     5     4 ar
    30    30    24 1
    31    23     4 ar
    32    29    24 1
    33    24    28 1
    34    24    27 1
    35     1    31 1
    36     2    32 1
    37     4    33 1
    38     6    34 1
    39     7    35 1
    40     7    36 1
    41     7    37 1
    42    10    38 1
    43    14    39 1
    44    14    40 1
    45    14    41 1
    46    17    42 1
    47    18    43 1
    48    19    44 1
    49    20    45 1
    50    22    46 1
    51    23    47 1
@<TRIPOS>SUBSTRUCTURE
     1 DY2         1 TEMP              0 ****  ****    0 ROOT
