@<TRIPOS>MOLECULE
DY4
   57    61     1     0     0
SMALL
bcc


@<TRIPOS>ATOM
      1 C4           0.0000     0.0000     0.0000 cc         1 DY4      -0.237600
      2 C5           1.4100     0.0000     0.0000 cc         1 DY4       0.457200
      3 C6           0.0600     0.0110     2.4000 c          1 DY4       0.551700
      4 N1          -4.3430     2.2590     2.7680 na         1 DY4       0.500400
      5 C7           2.1450     0.0010    -1.2890 ca         1 DY4      -0.156900
      6 C8           3.5390    -0.0000    -1.2980 ca         1 DY4       0.151900
      7 N2          -4.0570     1.0850     2.0610 nc         1 DY4      -0.706800
      8 C9           4.2210     0.0000    -2.5060 ca         1 DY4      -0.152400
      9 C10          6.2880    -0.8510    -3.3270 c          1 DY4       0.626700
     10 C11          7.7500    -0.9380    -3.2530 cc         1 DY4      -0.094700
     11 C12          8.5300    -1.7570    -4.0110 cd         1 DY4      -0.022000
     12 C13          9.8840    -1.6490    -3.7470 cd         1 DY4      -0.135300
     13 C14         10.1840    -0.7490    -2.7820 cc         1 DY4       0.016600
     14 C15         11.5910    -0.4430    -2.3080 c3         1 DY4       0.074900
     15 N4           2.0770     0.0000     1.1320 nd         1 DY4      -0.532300
     16 C1          -5.6740     2.7090     3.1850 c3         1 DY4       0.023600
     17 C16         12.5220    -1.5680    -2.7670 c3         1 DY4      -0.029400
     18 C17         12.3060    -1.8130    -4.2640 c3         1 DY4      -0.030400
     19 C18         10.9400    -2.4690    -4.4750 c3         1 DY4       0.057900
     20 C19          3.5130     0.0010    -3.7040 ca         1 DY4       0.165900
     21 C2          -2.7590     1.0270     1.8730 cd         1 DY4       0.483200
     22 C20          2.1280     0.0020    -3.6920 ca         1 DY4      -0.137000
     23 C21          1.4440    -0.0040    -2.4930 ca         1 DY4      -0.051000
     24 C22         -2.1830     2.1670     2.4570 cd         1 DY4      -0.343300
     25 C23         -3.1800     2.9010     3.0020 cc         1 DY4      -0.216600
     26 C24         -3.0200     4.2090     3.7330 c3         1 DY4       0.098200
     27 C3          -0.6750     0.0060     1.1870 cd         1 DY4      -0.051200
     28 F1           4.2240    -0.0010    -0.1330 f          1 DY4      -0.108900
     29 F2           4.1770     0.0010    -4.8800 f          1 DY4      -0.107900
     30 N5           1.4070     0.0000     2.3600 ns         1 DY4       0.141100
     31 N6           5.6230     0.0000    -2.5210 ns         1 DY4      -0.035100
     32 O1          -0.5230     0.0120     3.4730 o          1 DY4      -0.670500
     33 O2           5.6760    -1.5470    -4.1150 o          1 DY4      -0.619100
     34 S1           8.7730    -0.0000    -2.1790 ss         1 DY4      -0.227800
     35 H4          -0.5450    -0.0040    -0.9360 ha         1 DY4       0.132000
     36 H1           8.1260    -2.4330    -4.7560 ha         1 DY4       0.140000
     37 H2          -2.5750    -0.7460     0.7860 hn         1 DY4       0.290800
     38 H151        11.9210     0.4970    -2.7340 hc         1 DY4       0.025200
     39 H152        11.6030    -0.3820    -1.2260 hc         1 DY4       0.025200
     40 H12         -5.8950     3.6630     2.7200 h1         1 DY4       0.019367
     41 H13         -5.6970     2.8190     4.2620 h1         1 DY4       0.019367
     42 H11         -6.4140     1.9790     2.8800 h1         1 DY4       0.019367
     43 H161        13.5510    -1.2790    -2.5930 hc         1 DY4       0.019700
     44 H162        12.2950    -2.4730    -2.2170 hc         1 DY4       0.019700
     45 H171        13.0690    -2.5010    -4.6070 hc         1 DY4       0.022700
     46 H172        12.3010    -0.8530    -4.7660 hc         1 DY4       0.022700
     47 H181        10.7120    -2.4960    -5.5330 hc         1 DY4       0.022700
     48 H182        10.9570    -3.4760    -4.0750 hc         1 DY4       0.022700
     49 H20          1.5800     0.0010    -4.6260 ha         1 DY4       0.127000
     50 H21          0.3600    -0.0030    -2.4890 ha         1 DY4       0.118000
     51 H22         -1.1280     2.4120     2.4720 ha         1 DY4       0.139000
     52 H241        -3.2990     4.0790     4.7720 hc         1 DY4       0.009700
     53 H242        -3.6580     4.9580     3.2790 hc         1 DY4       0.009700
     54 H243        -1.9870     4.5320     3.6750 hc         1 DY4       0.009700
     55 H3           1.9310     0.0010     3.2130 hn         1 DY4       0.206500
     56 H5           6.1290     0.6530    -1.9560 hn         1 DY4       0.185500
     57 N3          -2.0690     0.0080     1.2070 nu         1 DY4      -0.284700
@<TRIPOS>BOND
     1     1     2 1   
     2     1    27 2   
     3     1    35 1   
     4     2     5 1   
     5     2    15 2   
     6     3    27 1   
     7     3    30 1   
     8     3    32 2   
     9     4     7 1   
    10     4    16 1   
    11     4    25 1   
    12     5     6 ar  
    13     5    23 ar  
    14     6     8 ar  
    15     6    28 1   
    16     7    21 2   
    17     8    20 ar  
    18     8    31 1   
    19     9    10 1   
    20     9    31 1   
    21     9    33 2   
    22    10    11 2   
    23    10    34 1   
    24    11    12 1   
    25    11    36 1   
    26    12    13 2   
    27    12    19 1   
    28    13    14 1   
    29    13    34 1   
    30    14    17 1   
    31    14    38 1   
    32    14    39 1   
    33    15    30 1   
    34    16    40 1   
    35    16    41 1   
    36    16    42 1   
    37    17    18 1   
    38    17    43 1   
    39    17    44 1   
    40    18    19 1   
    41    18    45 1   
    42    18    46 1   
    43    19    47 1   
    44    19    48 1   
    45    20    22 ar  
    46    20    29 1   
    47    21    24 1   
    48    21    57 1   
    49    22    23 ar  
    50    22    49 1   
    51    23    50 1   
    52    24    25 2   
    53    24    51 1   
    54    25    26 1   
    55    26    52 1   
    56    26    53 1   
    57    26    54 1   
    58    27    57 1   
    59    30    55 1   
    60    31    56 1   
    61    37    57 1   
@<TRIPOS>SUBSTRUCTURE
     1 DY4         1 TEMP              0 ****  ****    0 ROOT
