@<TRIPOS>MOLECULE
molecule
   57    61     1     0     0
SMALL
bcc


@<TRIPOS>ATOM
      1 C4           0.0000     0.0000     0.0000 cc         1 DY4      -0.250600
      2 C5           1.4100     0.0000     0.0000 cc         1 DY4       0.443200
      3 C6           0.0600     0.0110     2.4000 c          1 DY4       0.641700
      4 N1          -4.3430     2.2590     2.7680 na         1 DY4       0.067400
      5 C7           2.1450     0.0010    -1.2890 ca         1 DY4      -0.160900
      6 C8           3.5390    -0.0000    -1.2980 ca         1 DY4       0.169900
      7 N2          -4.0570     1.0850     2.0610 nc         1 DY4      -0.567800
      8 C9           4.2210     0.0000    -2.5060 ca         1 DY4      -0.026400
      9 C10          6.2880    -0.8510    -3.3270 c          1 DY4       0.711700
     10 C11          7.7500    -0.9380    -3.2530 cc         1 DY4      -0.130700
     11 C12          8.5300    -1.7570    -4.0110 cd         1 DY4      -0.062000
     12 C13          9.8840    -1.6490    -3.7470 cd         1 DY4      -0.130300
     13 C14         10.1840    -0.7490    -2.7820 cc         1 DY4      -0.031400
     14 C15         11.5910    -0.4430    -2.3080 c3         1 DY4      -0.004100
     15 N4           2.0770     0.0000     1.1320 nd         1 DY4      -0.433300
     16 C1          -5.6740     2.7090     3.1850 c3         1 DY4       0.070600
     17 C16         12.5220    -1.5680    -2.7670 c3         1 DY4      -0.080400
     18 C17         12.3060    -1.8130    -4.2640 c3         1 DY4      -0.081400
     19 C18         10.9400    -2.4690    -4.4750 c3         1 DY4      -0.013100
     20 C19          3.5130     0.0010    -3.7040 ca         1 DY4       0.184900
     21 C2          -2.7590     1.0270     1.8730 cd         1 DY4       0.610200
     22 C20          2.1280     0.0020    -3.6920 ca         1 DY4      -0.176000
     23 C21          1.4440    -0.0040    -2.4930 ca         1 DY4      -0.072000
     24 C22         -2.1830     2.1670     2.4570 cd         1 DY4      -0.357300
     25 C23         -3.1800     2.9010     3.0020 cc         1 DY4      -0.049600
     26 C24         -3.0200     4.2090     3.7330 c3         1 DY4      -0.027800
     27 C3          -0.6750     0.0060     1.1870 cd         1 DY4       0.109800
     28 F1           4.2240    -0.0010    -0.1330 f          1 DY4      -0.108900
     29 F2           4.1770     0.0010    -4.8800 f          1 DY4      -0.104900
     30 N5           1.4070     0.0000     2.3600 ns         1 DY4      -0.285900
     31 N6           5.6230     0.0000    -2.5210 ns         1 DY4      -0.476100
     32 O1          -0.5230     0.0120     3.4730 o          1 DY4      -0.619500
     33 O2           5.6760    -1.5470    -4.1150 o          1 DY4      -0.576100
     34 S1           8.7730    -0.0000    -2.1790 ss         1 DY4      -0.098800
     35 H4          -0.5450    -0.0040    -0.9360 ha         1 DY4       0.152000
     36 H1           8.1260    -2.4330    -4.7560 ha         1 DY4       0.171000
     37 H2          -2.5750    -0.7460     0.7860 hn         1 DY4       0.463800
     38 H151        11.9210     0.4970    -2.7340 hc         1 DY4       0.056200
     39 H152        11.6030    -0.3820    -1.2260 hc         1 DY4       0.056200
     40 H12         -5.8950     3.6630     2.7200 h1         1 DY4       0.051700
     41 H13         -5.6970     2.8190     4.2620 h1         1 DY4       0.051700
     42 H11         -6.4140     1.9790     2.8800 h1         1 DY4       0.051700
     43 H161        13.5510    -1.2790    -2.5930 hc         1 DY4       0.048700
     44 H162        12.2950    -2.4730    -2.2170 hc         1 DY4       0.048700
     45 H171        13.0690    -2.5010    -4.6070 hc         1 DY4       0.050700
     46 H172        12.3010    -0.8530    -4.7660 hc         1 DY4       0.050700
     47 H181        10.7120    -2.4960    -5.5330 hc         1 DY4       0.054700
     48 H182        10.9570    -3.4760    -4.0750 hc         1 DY4       0.054700
     49 H20          1.5800     0.0010    -4.6260 ha         1 DY4       0.158000
     50 H21          0.3600    -0.0030    -2.4890 ha         1 DY4       0.148000
     51 H22         -1.1280     2.4120     2.4720 ha         1 DY4       0.155000
     52 H241        -3.2990     4.0790     4.7720 hc         1 DY4       0.050033
     53 H242        -3.6580     4.9580     3.2790 hc         1 DY4       0.050033
     54 H243        -1.9870     4.5320     3.6750 hc         1 DY4       0.050033
     55 H3           1.9310     0.0010     3.2130 hn         1 DY4       0.374500
     56 H5           6.1290     0.6530    -1.9560 hn         1 DY4       0.334500
     57 N3          -2.0690     0.0080     1.2070 nu         1 DY4      -0.763700
@<TRIPOS>BOND
     1    26    25 1
     2    25     4 1
     3    25    24 2
     4    16     4 1
     5     4     7 1
     6    24    21 1
     7     7    21 2
     8    21    57 1
     9    57    27 1
    10    27     1 2
    11    27     3 1
    12     1     2 1
    13    32     3 2
    14     3    30 1
    15    23    22 ar
    16    23     5 ar
    17     2     5 1
    18     2    15 2
    19    22    20 ar
    20    30    15 1
    21     5     6 ar
    22    20    29 1
    23    20     8 ar
    24     6     8 ar
    25     6    28 1
    26     8    31 1
    27    31     9 1
    28    33     9 2
    29     9    10 1
    30    10    11 2
    31    10    34 1
    32    11    12 1
    33    34    13 1
    34    12    13 2
    35    12    19 1
    36    13    14 1
    37    19    18 1
    38    14    17 1
    39    18    17 1
    40     1    35 1
    41    11    36 1
    42    57    37 1
    43    14    38 1
    44    14    39 1
    45    16    40 1
    46    16    41 1
    47    16    42 1
    48    17    43 1
    49    17    44 1
    50    18    45 1
    51    18    46 1
    52    19    47 1
    53    19    48 1
    54    22    49 1
    55    23    50 1
    56    24    51 1
    57    26    52 1
    58    26    53 1
    59    26    54 1
    60    30    55 1
    61    31    56 1
@<TRIPOS>SUBSTRUCTURE
     1 DY4         1 TEMP              0 ****  ****    0 ROOT
