@<TRIPOS>MOLECULE
molecule
   50    53     1     0     0
SMALL
bcc


@<TRIPOS>ATOM
      1 N1           0.0000     0.0000     0.0000 n3         1 DY6      -0.820500
      2 S2          -0.8620    -0.9880    -1.0110 sy         1 DY6       1.428200
      3 C3           1.4660     0.0000     0.0000 c3         1 DY6       0.282100
      4 C4          -0.6760     0.9200     0.9300 c3         1 DY6       0.238800
      5 C5          -1.1260    -0.1010    -2.5100 ca         1 DY6      -0.335500
      6 O6          -0.0060    -2.0770    -1.3340 o          1 DY6      -0.638800
      7 O7          -2.1410    -1.1570    -0.4140 o          1 DY6      -0.638800
      8 C8           1.9740     0.0000     1.4200 ca         1 DY6      -0.084300
      9 C9          -0.3370     0.4800     2.3540 c3         1 DY6      -0.049100
     10 C10         -2.2470     0.6900    -2.6530 ca         1 DY6       0.018000
     11 C11         -0.2050    -0.1940    -3.5390 ca         1 DY6      -0.026000
     12 C12          1.1470     0.2270     2.4980 ca         1 DY6      -0.059300
     13 C13          3.3260    -0.2370     1.6240 ca         1 DY6      -0.124000
     14 C14         -2.4540     1.3940    -3.8410 ca         1 DY6      -0.151600
     15 C15         -0.4040     0.5000    -4.7180 ca         1 DY6      -0.164000
     16 C16          1.6800     0.2270     3.7810 ca         1 DY6      -0.130000
     17 C17          3.8510    -0.2410     2.9010 ca         1 DY6      -0.132000
     18 C18         -3.6520     2.2440    -4.0010 c          1 DY6       0.662700
     19 C19         -1.5240     1.2910    -4.8770 ca         1 DY6      -0.035000
     20 C20          3.0240    -0.0050     3.9830 ca         1 DY6      -0.130000
     21 N21         -3.8490     2.9210    -5.1490 ns         1 DY6      -0.428100
     22 O22         -4.4600     2.3320    -3.0970 o          1 DY6      -0.629100
     23 C23         -5.0220     3.6470    -5.3350 ca         1 DY6       0.064600
     24 C24         -5.6100     3.7230    -6.6090 ca         1 DY6      -0.130600
     25 C25         -5.6200     4.2960    -4.2630 ca         1 DY6      -0.156000
     26 C26         -6.7870     4.4550    -6.7820 ca         1 DY6      -0.081000
     27 C27         -4.9880     3.0350    -7.7540 c          1 DY6       0.891200
     28 C28         -6.7830     5.0160    -4.4510 ca         1 DY6      -0.139000
     29 C29         -7.3620     5.0980    -5.7070 ca         1 DY6      -0.175000
     30 O30         -5.4930     3.1990    -8.9920 o          1 DY6      -0.842800
     31 O31         -4.0210     2.3200    -7.5810 o          1 DY6      -0.842800
     32 H3           1.8250     0.8860    -0.5100 h1         1 DY6       0.064200
     33 H3A          1.8250    -0.8860    -0.5100 h1         1 DY6       0.064200
     34 H4          -1.7470     0.8720     0.7780 h1         1 DY6       0.062700
     35 H4A         -0.3220     1.9310     0.7660 h1         1 DY6       0.062700
     36 H9          -0.8760    -0.4320     2.5810 hc         1 DY6       0.059700
     37 H9A         -0.6330     1.2580     3.0460 hc         1 DY6       0.059700
     38 H10         -3.0020     0.7050    -1.8760 ha         1 DY6       0.171000
     39 H11          0.6750    -0.8130    -3.4200 ha         1 DY6       0.138000
     40 H13          3.9730    -0.4220     0.7760 ha         1 DY6       0.129000
     41 H15          0.3190     0.4210    -5.5210 ha         1 DY6       0.136000
     42 H16          1.0340     0.4120     4.6310 ha         1 DY6       0.128000
     43 H17          4.9080    -0.4250     3.0540 ha         1 DY6       0.126000
     44 H19         -1.6780     1.8340    -5.8010 ha         1 DY6       0.166000
     45 H20          3.4300    -0.0070     4.9870 ha         1 DY6       0.125000
     46 HN21        -3.1270     2.9520    -5.8410 hn         1 DY6       0.357500
     47 H25         -5.1730     4.2370    -3.2780 ha         1 DY6       0.144000
     48 H26         -7.2450     4.5210    -7.7610 ha         1 DY6       0.155000
     49 H28         -7.2440     5.5220    -3.6120 ha         1 DY6       0.106000
     50 H29         -8.2750     5.6650    -5.8440 ha         1 DY6       0.106000
@<TRIPOS>BOND
     1     3     1 1
     2     1     2 1
     3     1     4 1
     4     5     2 1
     5     7     2 2
     6     2     6 2
     7     8     3 1
     8     3    32 1
     9     3    33 1
    10     4     9 1
    11     4    34 1
    12     4    35 1
    13    10     5 ar
    14     5    11 ar
    15    13     8 ar
    16     8    12 ar
    17    12     9 1
    18     9    36 1
    19     9    37 1
    20    14    10 ar
    21    10    38 1
    22    15    11 ar
    23    11    39 1
    24    16    12 ar
    25    17    13 ar
    26    13    40 1
    27    18    14 1
    28    14    19 ar
    29    19    15 ar
    30    15    41 1
    31    20    16 ar
    32    16    42 1
    33    17    20 ar
    34    17    43 1
    35    21    18 1
    36    22    18 2
    37    19    44 1
    38    20    45 1
    39    23    21 1
    40    21    46 1
    41    24    23 ar
    42    25    23 ar
    43    26    24 ar
    44    24    27 1
    45    28    25 ar
    46    25    47 1
    47    29    26 ar
    48    26    48 1
    49    31    27 1
    50    27    30 1
    51    29    28 ar
    52    28    49 1
    53    29    50 1
@<TRIPOS>SUBSTRUCTURE
     1 DY6         1 TEMP              0 ****  ****    0 ROOT
