@<TRIPOS>MOLECULE
molecule
   28    29     1     0     0
SMALL
bcc


@<TRIPOS>ATOM
      1 C15          0.0000     0.0000     0.0000 ca         1 DY7       0.089400
      2 C11          4.1810     0.9970     4.7330 ca         1 DY7      -0.005900
      3 C10          5.3900     0.3560     4.9360 ca         1 DY7      -0.065000
      4 C14          1.3810     0.0000     0.0000 ca         1 DY7      -0.357300
      5 N17         -0.6490     0.0050     1.1560 na         1 DY7      -0.315900
      6 C02          0.0090     0.0060     2.3060 ca         1 DY7       0.727000
      7 N03          1.3330     0.0010     2.3490 nb         1 DY7      -0.804000
      8 C04          2.0460     0.0000     1.2280 ca         1 DY7       0.797200
      9 N05          3.4330    -0.0050     1.2760 nu         1 DY7      -0.695300
     10 C06          4.0890     0.1160     2.5050 ca         1 DY7       0.100600
     11 C07          5.3030    -0.5280     2.7110 ca         1 DY7      -0.097500
     12 C08          5.9500    -0.4050     3.9260 ca         1 DY7      -0.005900
     13 Br9          7.6040    -1.2790     4.2070 br         1 DY7      -0.044100
     14 C13          3.5290     0.8790     3.5210 ca         1 DY7      -0.097500
     15 C16         -0.7620     0.0020    -1.3010 c3         1 DY7      -0.070800
     16 H101         5.8990     0.4510     5.8880 ha         1 DY7       0.175000
     17 H141         1.9350    -0.0030    -0.9310 ha         1 DY7       0.190000
     18 H011        -0.2430    -0.1970     4.3540 hn         1 DY7       0.327700
     19 H012        -1.6860     0.2090     3.4830 hn         1 DY7       0.327700
     20 H051         3.9630    -0.0520     0.4290 hn         1 DY7       0.485800
     21 H071         5.7410    -1.1240     1.9200 ha         1 DY7       0.158500
     22 H131         2.5820     1.3820     3.3630 ha         1 DY7       0.158500
     23 H162        -0.1140     0.3440    -2.0980 hc         1 DY7       0.088367
     24 H161        -1.1040    -1.0030    -1.5200 hc         1 DY7       0.088367
     25 H163        -1.6150     0.6640    -1.2190 hc         1 DY7       0.088367
     26 H171        -1.6500     0.0060     1.1600 hn         1 DY7       0.326700
     27 N01         -0.7050     0.0110     3.4910 nv         1 DY7      -0.524900
     28 Br2          3.4240     2.0430     6.1150 br         1 DY7      -0.044100
@<TRIPOS>BOND
     1    28     2 1
     2    13    12 1
     3     3     2 ar
     4     3    12 ar
     5     2    14 ar
     6    12    11 ar
     7    14    10 ar
     8    11    10 ar
     9    10     9 1
    10     9     8 1
    11     7     8 ar
    12     7     6 ar
    13     8     4 ar
    14    27     6 1
    15     6     5 1
    16     4     1 ar
    17     5     1 2
    18     1    15 1
    19     3    16 1
    20     4    17 1
    21    27    18 1
    22    27    19 1
    23     9    20 1
    24    11    21 1
    25    14    22 1
    26    15    23 1
    27    15    24 1
    28    15    25 1
    29     5    26 1
@<TRIPOS>SUBSTRUCTURE
     1 DY7         1 TEMP              0 ****  ****    0 ROOT
