@<TRIPOS>MOLECULE
molecule
   32    33     1     0     0
SMALL
bcc


@<TRIPOS>ATOM
      1 N            0.0000     0.0000     0.0000 nx         1 DY8      -0.629400
      2 C           -0.1070    -1.2960    -2.0530 c          1 DY8       0.868600
      3 O            0.7340    -2.0080    -1.5560 o          1 DY8      -0.744300
      4 CAG          1.4690     0.0000     0.0000 c3         1 DY8       0.047800
      5 CAE          1.9760     0.0000     1.4450 c3         1 DY8       0.119400
      6 OAL          1.4510    -1.1410     2.1290 os         1 DY8      -0.369600
      7 CAF          0.0220    -1.1990     2.1350 c3         1 DY8       0.119400
      8 CAH         -0.4890    -1.2010     0.6920 c3         1 DY8       0.047800
      9 CA          -0.4900    -0.0010    -1.3850 c3         1 DY8      -0.005500
     10 CB           0.1350     1.1710    -2.1470 c3         1 DY8      -0.025100
     11 CG          -0.3260     2.4690    -1.5370 cc         1 DY8      -0.072600
     12 CD2         -1.4710     3.1230    -1.8100 cd         1 DY8      -0.133300
     13 NE2         -1.5060     4.2310    -1.0550 na         1 DY8      -0.067100
     14 CE1         -0.4260     4.2890    -0.3250 cc         1 DY8      -0.070600
     15 ND1          0.3380     3.2070    -0.5940 na         1 DY8      -0.141100
     16 H           -0.3320     0.8150     0.4760 hn         1 DY8       0.385800
     17 HAG          1.8300     0.8860    -0.5080 hx         1 DY8       0.134450
     18 HE4          1.8300    -0.8860    -0.5080 hx         1 DY8       0.134450
     19 HAE          3.0590    -0.0450     1.4470 h1         1 DY8       0.071200
     20 HE2          1.6450     0.9030     1.9430 h1         1 DY8       0.071200
     21 HE3         -0.3710    -0.3340     2.6550 h1         1 DY8       0.071200
     22 HAF         -0.2990    -2.1050     2.6330 h1         1 DY8       0.071200
     23 HE5         -1.5720    -1.2000     0.6940 hx         1 DY8       0.134450
     24 HAH         -0.1230    -2.0840     0.1820 hx         1 DY8       0.134450
     25 HA          -1.5680     0.1010    -1.3870 hx         1 DY8       0.104700
     26 HB2          1.2150     1.1060    -2.0860 hc         1 DY8       0.123700
     27 HB1         -0.1710     1.1310    -3.1850 hc         1 DY8       0.123700
     28 HD2         -2.2210     2.8190    -2.5300 h4         1 DY8       0.250000
     29 H2          -2.2440     4.9070    -1.0510 hn         1 DY8       0.368700
     30 HE1         -0.1820     5.0740     0.3810 h5         1 DY8       0.258000
     31 HD1          1.2630     3.4570    -0.3080 hn         1 DY8       0.365700
     32 OXT         -0.7010    -1.6600    -3.2010 o          1 DY8      -0.744300
@<TRIPOS>BOND
     1     3     2 1
     2     2    32 1
     3     2     9 1
     4    13    12 1
     5    13    14 2
     6    12    11 2
     7     4     5 1
     8     4     1 1
     9    14    15 1
    10     5     6 1
    11     9     1 1
    12     9    10 1
    13    11    15 1
    14    11    10 1
    15     1     8 1
    16     6     7 1
    17     8     7 1
    18     1    16 1
    19     4    17 1
    20     4    18 1
    21     5    19 1
    22     5    20 1
    23     7    21 1
    24     7    22 1
    25     8    23 1
    26     8    24 1
    27     9    25 1
    28    10    26 1
    29    10    27 1
    30    12    28 1
    31    13    29 1
    32    14    30 1
    33    15    31 1
@<TRIPOS>SUBSTRUCTURE
     1 DY8         1 TEMP              0 ****  ****    0 ROOT
