@<TRIPOS>MOLECULE
molecule
   22    21     1     0     0
SMALL
bcc


@<TRIPOS>ATOM
      1 C01          0.0000     0.0000     0.0000 c3         1 DYD      -0.120100
      2 C02          1.5300     0.0000     0.0000 c3         1 DYD       0.144100
      3 C03          2.0410     1.2480    -0.7200 c3         1 DYD      -0.076400
      4 C04          3.5660     1.1870    -0.8300 c3         1 DYD      -0.076400
      5 C05          4.0760     2.4360    -1.5510 c3         1 DYD       0.144100
      6 C06          5.5860     2.3160    -1.7710 c3         1 DYD      -0.120100
      7 O07          3.8000     3.5920    -0.7580 oh         1 DYD      -0.603300
      8 O08          2.0060     0.0000     1.3480 oh         1 DYD      -0.603300
      9 H1          -0.3610     0.8900     0.5010 hc         1 DYD       0.040200
     10 H2          -0.3610    -0.8790     0.5200 hc         1 DYD       0.040200
     11 H3          -0.3610    -0.0110    -1.0210 hc         1 DYD       0.040200
     12 H4           1.8910    -0.8850    -0.5100 h1         1 DYD       0.024200
     13 H5           1.7540     2.1310    -0.1610 hc         1 DYD       0.056200
     14 H6           1.6090     1.2940    -1.7130 hc         1 DYD       0.056200
     15 H7           3.9980     1.1430     0.1630 hc         1 DYD       0.056200
     16 H8           3.8530     0.3050    -1.3880 hc         1 DYD       0.056200
     17 H9           3.5780     2.5280    -2.5090 h1         1 DYD       0.024200
     18 H10          5.9490     3.2050    -2.2730 hc         1 DYD       0.040200
     19 H11          5.7940     1.4470    -2.3820 hc         1 DYD       0.040200
     20 H12          6.0830     2.2130    -0.8140 hc         1 DYD       0.040200
     21 H13          3.7220     4.3460    -1.3180 ho         1 DYD       0.398000
     22 H14          2.0620    -0.8870     1.6620 ho         1 DYD       0.398000
@<TRIPOS>BOND
     1     8     2 1
     2     2     1 1
     3     2     3 1
     4     4     3 1
     5     4     5 1
     6     7     5 1
     7     6     5 1
     8     1     9 1
     9     1    10 1
    10     1    11 1
    11     2    12 1
    12     3    13 1
    13     3    14 1
    14     4    15 1
    15     4    16 1
    16     5    17 1
    17     6    18 1
    18     6    19 1
    19     6    20 1
    20     7    21 1
    21     8    22 1
@<TRIPOS>SUBSTRUCTURE
     1 DYD         1 TEMP              0 ****  ****    0 ROOT
