@<TRIPOS>MOLECULE
DYH
   40    41     1     0     0
SMALL
bcc


@<TRIPOS>ATOM
      1 CAA          0.0000     0.0000     0.0000 c3         1 DYH       0.170100
      2 NH           1.4690     0.0000     0.0000 n7         1 DYH      -0.553200
      3 CAH          1.9940     0.0000     1.3720 c3         1 DYH       0.105500
      4 CAG          2.0580     1.4400     1.8880 c3         1 DYH       0.152100
      5 OAC          2.8660     2.2300     1.0140 oh         1 DYH      -0.489800
      6 CAP          2.6800     1.4190     3.2900 c3         1 DYH       0.185400
      7 OAQ          3.9950     0.8780     3.1970 os         1 DYH      -0.341600
      8 CAR          4.0750    -0.4740     2.7430 c3         1 DYH       0.150100
      9 CAS          5.5560    -0.7160     2.3200 c3         1 DYH      -0.054400
     10 CAI          3.3740    -0.6290     1.3790 c3         1 DYH       0.154100
     11 OAJ          4.2500    -0.0350     0.4190 os         1 DYH      -0.384600
     12 CAK          5.5970    -0.0800     0.9130 c3         1 DYH       0.026800
     13 CAE          6.1580     1.3160     0.9960 c          1 DYH       0.991600
     14 OAB          5.8430     2.2240     0.0600 o          1 DYH      -0.870800
     15 OAF          6.8920     1.6180     1.9090 o          1 DYH      -0.870800
     16 CB           6.4620    -0.9350    -0.0170 c3         1 DYH      -0.009400
     17 CA           6.6000    -0.2340    -1.3710 c3         1 DYH      -0.199500
     18 C            7.5500    -1.0130    -2.2450 c          1 DYH       0.967600
     19 O            7.1180    -1.7560    -3.0940 o          1 DYH      -0.855300
     20 OXT          8.8760    -0.8800    -2.0790 o          1 DYH      -0.855300
     21 N            5.2850    -0.1630    -2.0220 nz         1 DYH       0.024400
     22 HAA         -0.3610     0.9820     0.2800 h1         1 DYH      -0.007300
     23 HAAA        -0.3610    -0.7340     0.7110 h1         1 DYH      -0.007300
     24 HAAB        -0.3610    -0.2480    -0.9910 h1         1 DYH      -0.007300
     25 HNH          1.8020    -0.8090    -0.4850 hn         1 DYH       0.244800
     26 HAH          1.3370    -0.5780     2.0110 h1         1 DYH       0.007700
     27 HAG          1.0580     1.8520     1.9400 h1         1 DYH      -0.015300
     28 HOAC         2.4860     3.0890     0.9260 ho         1 DYH       0.366000
     29 HAP          2.7300     2.4290     3.6790 h1         1 DYH      -0.000300
     30 HAPA         2.0780     0.8010     3.9450 h1         1 DYH      -0.000300
     31 HAR          3.7290    -1.1910     3.4780 h1         1 DYH       0.003700
     32 HAS          6.2360    -0.2060     2.9920 hc         1 DYH       0.047200
     33 HASA         5.7730    -1.7760     2.2700 hc         1 DYH       0.047200
     34 HAI          3.2760    -1.6840     1.1550 h1         1 DYH      -0.011300
     35 HB           7.4430    -1.0680     0.4220 hc         1 DYH       0.036200
     36 HBA          5.9950    -1.9020    -0.1570 hc         1 DYH       0.036200
     37 HA           6.9850     0.7670    -1.2220 hx         1 DYH       0.148700
     38 HN           4.6000    -0.6020    -1.4380 hn         1 DYH       0.223133
     39 HNA          5.0360     0.7950    -2.1670 hn         1 DYH       0.223133
     40 HN3          5.3230    -0.6350    -2.9040 hn         1 DYH       0.223133
@<TRIPOS>BOND
     1     1     2 1   
     2     1    22 1   
     3     1    23 1   
     4     1    24 1   
     5     2     3 1   
     6     2    25 1   
     7     3     4 1   
     8     3    10 1   
     9     3    26 1   
    10     4     5 1   
    11     4     6 1   
    12     4    27 1   
    13     5    28 1   
    14     6     7 1   
    15     6    29 1   
    16     6    30 1   
    17     7     8 1   
    18     8     9 1   
    19     8    10 1   
    20     8    31 1   
    21     9    12 1   
    22     9    32 1   
    23     9    33 1   
    24    10    11 1   
    25    10    34 1   
    26    11    12 1   
    27    12    13 1   
    28    12    16 1   
    29    13    14 1   
    30    13    15 1   
    31    16    17 1   
    32    16    35 1   
    33    16    36 1   
    34    17    18 1   
    35    17    21 1   
    36    17    37 1   
    37    18    19 1   
    38    18    20 1   
    39    21    38 1   
    40    21    39 1   
    41    21    40 1   
@<TRIPOS>SUBSTRUCTURE
     1 DYH         1 TEMP              0 ****  ****    0 ROOT
