@<TRIPOS>MOLECULE
DYK
   58    62     1     0     0
SMALL
bcc


@<TRIPOS>ATOM
      1 C            0.0000     0.0000     0.0000 c3         1 DYK       0.189100
      2 N            1.4690     0.0000     0.0000 n3         1 DYK      -0.548600
      3 O            3.8190    -2.2480     1.1900 os         1 DYK      -0.298900
      4 C1           1.9970     0.0000     1.3700 c3         1 DYK       0.155800
      5 N1           7.0810    -6.5700     0.0440 nu         1 DYK      -0.265300
      6 O1           7.4870    -4.1170    -1.1930 os         1 DYK      -0.314900
      7 C2           3.5190     0.1470     1.3330 c3         1 DYK      -0.042900
      8 N2           5.2840    -8.0310     0.3530 nb         1 DYK      -0.707000
      9 C3           4.1190    -1.0140     0.5350 c3         1 DYK       0.165100
     10 N3           7.4020    -8.8820    -0.0280 nb         1 DYK      -0.696000
     11 C4           3.5190    -1.0200    -0.8730 c3         1 DYK      -0.042900
     12 N4           8.6550   -13.3540    -0.2810 na         1 DYK       0.393600
     13 C5           1.9960    -1.1340    -0.7710 c3         1 DYK       0.155800
     14 N5          11.9380   -11.7750    -0.8520 nb         1 DYK      -0.571000
     15 C6           4.6210    -3.3080     0.9070 ca         1 DYK       0.176100
     16 C7           4.4060    -4.5270     1.5320 ca         1 DYK      -0.166000
     17 C8           5.2210    -5.6070     1.2470 ca         1 DYK      -0.039000
     18 C9           6.2550    -5.4740     0.3330 ca         1 DYK      -0.073400
     19 C10          6.4720    -4.2500    -0.2960 ca         1 DYK       0.162100
     20 C11          5.6520    -3.1720    -0.0120 ca         1 DYK      -0.310000
     21 C12          7.6510    -2.8330    -1.8000 c3         1 DYK       0.248700
     22 C13          6.5780    -7.8570     0.1250 ca         1 DYK       0.707900
     23 C14          4.7640    -9.2470     0.4370 ca         1 DYK       0.494200
     24 C15          5.5860   -10.3460     0.2850 ca         1 DYK      -0.429600
     25 C16          6.9480   -10.1330     0.0440 ca         1 DYK       0.582100
     26 C17          7.8690   -11.2770    -0.1270 cc         1 DYK      -0.233000
     27 C18          7.5440   -12.5970    -0.0780 cd         1 DYK      -0.239100
     28 C19          9.7540   -12.5460    -0.4710 ca         1 DYK      -0.371500
     29 C20          9.3130   -11.2100    -0.3830 ca         1 DYK      -0.039800
     30 C21         10.2440   -10.1840    -0.5400 ca         1 DYK      -0.154300
     31 C22         11.5510   -10.5130    -0.7750 ca         1 DYK       0.365200
     32 C23         11.1020   -12.7830    -0.7110 ca         1 DYK       0.412200
     33 H           -0.3610     0.0380    -1.0210 h1         1 DYK      -0.000300
     34 HA          -0.3610     0.8650     0.5430 h1         1 DYK      -0.000300
     35 HB          -0.3610    -0.9030     0.4770 h1         1 DYK      -0.000300
     36 H1           1.7370    -0.9330     1.8550 h1         1 DYK       0.014950
     37 H1A          1.5690     0.8300     1.9200 h1         1 DYK       0.014950
     38 HN1          8.0440    -6.4230    -0.1880 hn         1 DYK       0.296800
     39 H2           3.7790     1.0840     0.8570 hc         1 DYK       0.029200
     40 H2A          3.9080     0.1280     2.3440 hc         1 DYK       0.029200
     41 H3           5.1930    -0.8860     0.4680 h1         1 DYK       0.018700
     42 H4           3.7780    -0.0990    -1.3800 hc         1 DYK       0.029200
     43 H4A          3.9070    -1.8670    -1.4260 hc         1 DYK       0.029200
     44 H5           1.5680    -1.1220    -1.7660 h1         1 DYK       0.014950
     45 H5A          1.7370    -2.0600    -0.2720 h1         1 DYK       0.014950
     46 H7           3.5980    -4.6330     2.2470 ha         1 DYK       0.118000
     47 H8           5.0500    -6.5580     1.7370 ha         1 DYK       0.142000
     48 H11          5.8440    -2.2100    -0.4710 ha         1 DYK       0.144000
     49 H12          7.8300    -2.0910    -1.0320 h1         1 DYK      -0.002300
     50 H12A         8.4940    -2.8600    -2.4800 h1         1 DYK      -0.002300
     51 H12B         6.7530    -2.5760    -2.3490 h1         1 DYK      -0.002300
     52 H14          3.7050    -9.3770     0.6240 h4         1 DYK      -0.020900
     53 H15          5.1850   -11.3500     0.3490 ha         1 DYK       0.123000
     54 H18          6.5480   -12.9870     0.0960 h4         1 DYK       0.145000
     55 H21          9.9380    -9.1470    -0.4790 ha         1 DYK       0.131000
     56 H22         12.2830    -9.7240    -0.8990 h4         1 DYK      -0.019900
     57 H23         11.4660   -13.8000    -0.7820 h4         1 DYK      -0.026900
     58 HN4          8.6720   -14.3540    -0.2910 hn         1 DYK       0.114700
@<TRIPOS>BOND
     1     1     2 1   
     2     1    33 1   
     3     1    34 1   
     4     1    35 1   
     5     2     4 1   
     6     2    13 1   
     7     3     9 1   
     8     3    15 1   
     9     4     7 1   
    10     4    36 1   
    11     4    37 1   
    12     5    18 1   
    13     5    22 1   
    14     5    38 1   
    15     6    19 1   
    16     6    21 1   
    17     7     9 1   
    18     7    39 1   
    19     7    40 1   
    20     8    22 ar  
    21     8    23 ar  
    22     9    11 1   
    23     9    41 1   
    24    10    22 ar  
    25    10    25 ar  
    26    11    13 1   
    27    11    42 1   
    28    11    43 1   
    29    12    27 1   
    30    12    28 1   
    31    12    58 1   
    32    13    44 1   
    33    13    45 1   
    34    14    31 ar  
    35    14    32 ar  
    36    15    16 ar  
    37    15    20 ar  
    38    16    17 ar  
    39    16    46 1   
    40    17    18 ar  
    41    17    47 1   
    42    18    19 ar  
    43    19    20 ar  
    44    20    48 1   
    45    21    49 1   
    46    21    50 1   
    47    21    51 1   
    48    23    24 ar  
    49    23    52 1   
    50    24    25 ar  
    51    24    53 1   
    52    25    26 1   
    53    26    27 2   
    54    26    29 1   
    55    27    54 1   
    56    28    29 ar  
    57    28    32 ar  
    58    29    30 ar  
    59    30    31 ar  
    60    30    55 1   
    61    31    56 1   
    62    32    57 1   
@<TRIPOS>SUBSTRUCTURE
     1 DYK         1 TEMP              0 ****  ****    0 ROOT
