@<TRIPOS>MOLECULE
molecule
   36    36     1     0     0
SMALL
bcc


@<TRIPOS>ATOM
      1 C1           0.0000     0.0000     0.0000 c          1 DYM       0.883800
      2 C2           1.4730     0.0000     0.0000 ce         1 DYM       0.058900
      3 C3           2.0680     0.0000     1.1780 c2         1 DYM      -0.334200
      4 C4           3.5690    -0.0180     1.3220 c3         1 DYM       0.180300
      5 C5           4.1850     0.2680    -0.0540 c3         1 DYM       0.094700
      6 C6           3.3910    -0.5380    -1.0910 c3         1 DYM       0.307900
      7 C8           3.9760    -1.2920    -4.6290 c3         1 DYM       0.153100
      8 C9           3.2820    -2.3040    -5.5440 c3         1 DYM       0.126400
      9 C11          7.9920     0.2660     0.3520 c3         1 DYM      -0.173100
     10 N5           5.5890    -0.1490    -0.0680 ns         1 DYM      -0.574900
     11 O1A         -0.6740     0.0000    -1.1670 o          1 DYM      -0.817300
     12 O1B         -0.6070    -0.0020     1.0530 o          1 DYM      -0.817300
     13 O4           3.9770     0.9860     2.2530 oh         1 DYM      -0.579800
     14 O6           2.0790     0.0010    -1.2010 os         1 DYM      -0.280900
     15 O7           4.0450    -0.4650    -2.3590 os         1 DYM      -0.397600
     16 O8           3.8480     0.0180    -5.1860 oh         1 DYM      -0.581800
     17 O9           3.9640    -2.3580    -6.7990 oh         1 DYM      -0.613800
     18 O10          6.2460     1.7980     0.7680 o          1 DYM      -0.587100
     19 H3           1.4640    -0.1800     2.0590 ha         1 DYM       0.167000
     20 H4           3.8880    -0.9940     1.6670 h1         1 DYM       0.012700
     21 H5           4.1080     1.3260    -0.2770 h1         1 DYM       0.121700
     22 H6           3.3290    -1.5710    -0.7700 h2         1 DYM       0.027700
     23 H71          3.3430    -2.3370    -2.8610 h1         1 DYM       0.056200
     24 H72          2.2980    -0.9860    -3.3220 h1         1 DYM       0.056200
     25 H8           5.0260    -1.5460    -4.5400 h1         1 DYM       0.035700
     26 H91          2.2550    -2.0000    -5.7040 h1         1 DYM       0.033700
     27 H92          3.3010    -3.2830    -5.0800 h1         1 DYM       0.033700
     28 H111         8.5960     1.0140     0.8500 hc         1 DYM       0.051033
     29 H112         8.0890    -0.6810     0.8700 hc         1 DYM       0.051033
     30 H113         8.3280     0.1530    -0.6720 hc         1 DYM       0.051033
     31 HN5          5.8350    -1.0700    -0.3730 hn         1 DYM       0.303500
     32 HO4          3.9220     0.6440     3.1300 ho         1 DYM       0.388000
     33 HO8          4.7050     0.3800    -5.3400 ho         1 DYM       0.402000
     34 HO9          3.6100    -3.0600    -7.3190 ho         1 DYM       0.396000
     35 C7           3.3250    -1.3240    -3.2450 c3         1 DYM       0.108400
     36 C10          6.5460     0.6940     0.3660 c          1 DYM       0.652100
@<TRIPOS>BOND
     1     1     2 1
     2     1    11 1
     3     1    12 1
     4     2     3 2
     5     2    14 1
     6     3     4 1
     7     3    19 1
     8     4     5 1
     9     4    13 1
    10     4    20 1
    11     5     6 1
    12     5    10 1
    13     5    21 1
    14     6    14 1
    15     6    15 1
    16     6    22 1
    17    35     7 1
    18    35    15 1
    19    35    23 1
    20    35    24 1
    21     7     8 1
    22     7    16 1
    23     7    25 1
    24     8    17 1
    25     8    26 1
    26     8    27 1
    27    36     9 1
    28    36    10 1
    29    36    18 2
    30     9    28 1
    31     9    29 1
    32     9    30 1
    33    10    31 1
    34    13    32 1
    35    16    33 1
    36    17    34 1
@<TRIPOS>SUBSTRUCTURE
     1 DYM         1 TEMP              0 ****  ****    0 ROOT
