@<TRIPOS>MOLECULE
DYP
   59    62     1     0     0
SMALL
bcc


@<TRIPOS>ATOM
      1 CAY          0.0000     0.0000     0.0000 c3         1 DYP       0.014900
      2 CAX          1.5300     0.0000     0.0000 c3         1 DYP      -0.123400
      3 CAW          2.0330     0.0000     1.4200 c          1 DYP       0.606100
      4 OBF          1.2480     0.0010     2.3380 o          1 DYP      -0.549100
      5 CAV          3.5140     0.0000     1.6960 c3         1 DYP      -0.149700
      6 CAU          3.7800     0.6100     3.0750 c3         1 DYP      -0.013900
      7 CAT          5.2720     0.5020     3.3940 c3         1 DYP       0.132300
      8 CAI          4.0390    -1.4390     1.6800 c3         1 DYP      -0.013900
      9 CAH          5.5170    -1.4400     2.0720 c3         1 DYP       0.132300
     10 NAG          5.6710    -0.9090     3.4300 n3         1 DYP      -0.509600
     11 CAF          7.1090    -0.9340     3.7330 c3         1 DYP       0.205100
     12 CAE          7.5350    -2.3490     4.0270 ca         1 DYP      -0.154300
     13 CAS          7.9720    -3.1640     2.9990 ca         1 DYP      -0.038500
     14 CAR          8.3650    -4.4620     3.2650 ca         1 DYP      -0.191000
     15 CAD          7.4940    -2.8260     5.3240 ca         1 DYP      -0.038500
     16 CAC          7.8790    -4.1240     5.5960 ca         1 DYP      -0.191000
     17 CAQ          8.3190    -4.9470     4.5660 ca         1 DYP       0.069600
     18 N10          8.7150    -6.2590     4.8390 nu         1 DYP      -0.429600
     19 C9           8.6670    -6.7680     6.2110 c3         1 DYP       0.140500
     20 C6           9.1420    -8.1970     6.2340 ca         1 DYP       0.155300
     21 C7          10.4770    -8.4770     6.5290 ca         1 DYP       0.363900
     22 N8          10.9150    -9.7170     6.5550 nb         1 DYP      -0.559000
     23 C8A         10.0730   -10.7200     6.2950 ca         1 DYP       0.604000
     24 N1          10.4680   -11.9980     6.3080 nb         1 DYP      -0.750000
     25 C2           9.6220   -12.9750     6.0480 ca         1 DYP       0.773900
     26 N2          10.0920   -14.2740     6.0770 nv         1 DYP      -0.478500
     27 N3           8.3390   -12.7770     5.7600 nb         1 DYP      -0.791000
     28 C4           7.8240   -11.5550     5.7160 ca         1 DYP       0.531900
     29 N4           6.4950   -11.3520     5.4180 nv         1 DYP      -0.446500
     30 C4A          8.7180   -10.4300     5.9950 ca         1 DYP      -0.012000
     31 N5           8.2940    -9.1710     5.9800 nb         1 DYP      -0.475000
     32 HAY1        -0.3610    -0.0230    -1.0210 hc         1 DYP       0.008033
     33 HAY2        -0.3610     0.8960     0.4910 hc         1 DYP       0.008033
     34 HAY3        -0.3610    -0.8730     0.5300 hc         1 DYP       0.008033
     35 HAX1         1.8910     0.8840    -0.5110 hc         1 DYP       0.031200
     36 HAX2         1.8910    -0.8840    -0.5110 hc         1 DYP       0.031200
     37 HAV          4.0290     0.5800     0.9390 hc         1 DYP       0.035700
     38 HAU1         3.4860     1.6530     3.0710 hc         1 DYP       0.028950
     39 HAU2         3.2110     0.0710     3.8240 hc         1 DYP       0.028950
     40 HAT1         5.8410     1.0170     2.6290 h1         1 DYP       0.014450
     41 HAT2         5.4660     0.9540     4.3600 h1         1 DYP       0.014450
     42 HAI1         3.4770    -2.0360     2.3890 hc         1 DYP       0.028950
     43 HAI2         3.9290    -1.8520     0.6840 hc         1 DYP       0.028950
     44 HAH1         5.8960    -2.4540     2.0380 h1         1 DYP       0.014450
     45 HAH2         6.0720    -0.8200     1.3790 h1         1 DYP       0.014450
     46 HAF1         7.6640    -0.5590     2.8820 h1         1 DYP       0.012200
     47 HAF2         7.3070    -0.3100     4.5970 h1         1 DYP       0.012200
     48 HAS          8.0080    -2.7850     1.9850 ha         1 DYP       0.101500
     49 HAR          8.7070    -5.1010     2.4600 ha         1 DYP       0.110500
     50 HAD          7.1510    -2.1840     6.1260 ha         1 DYP       0.101500
     51 HAC          7.8450    -4.4980     6.6120 ha         1 DYP       0.110500
     52 H10          9.0220    -6.8540     4.0950 hn         1 DYP       0.294800
     53 H91          7.6490    -6.7200     6.5790 h1         1 DYP       0.021700
     54 H92          9.3080    -6.1640     6.8430 h1         1 DYP       0.021700
     55 H7          11.1600    -7.6630     6.7410 h4         1 DYP      -0.009900
     56 HN21         9.4720   -15.0350     5.8840 hn         1 DYP       0.276300
     57 HN22        11.0530   -14.4540     6.2910 hn         1 DYP       0.276300
     58 HN41         5.8990   -12.1340     5.2280 hn         1 DYP       0.280300
     59 HN42         6.1230   -10.4230     5.3940 hn         1 DYP       0.280300
@<TRIPOS>BOND
     1     1     2 1   
     2     1    32 1   
     3     1    33 1   
     4     1    34 1   
     5     2     3 1   
     6     2    35 1   
     7     2    36 1   
     8     3     4 2   
     9     3     5 1   
    10     5     6 1   
    11     5     8 1   
    12     5    37 1   
    13     6     7 1   
    14     6    38 1   
    15     6    39 1   
    16     7    10 1   
    17     7    40 1   
    18     7    41 1   
    19     8     9 1   
    20     8    42 1   
    21     8    43 1   
    22     9    10 1   
    23     9    44 1   
    24     9    45 1   
    25    10    11 1   
    26    11    12 1   
    27    11    46 1   
    28    11    47 1   
    29    12    13 ar  
    30    12    15 ar  
    31    13    14 ar  
    32    13    48 1   
    33    14    17 ar  
    34    14    49 1   
    35    15    16 ar  
    36    15    50 1   
    37    16    17 ar  
    38    16    51 1   
    39    17    18 1   
    40    18    19 1   
    41    18    52 1   
    42    19    20 1   
    43    19    53 1   
    44    19    54 1   
    45    20    21 ar  
    46    20    31 ar  
    47    21    22 ar  
    48    21    55 1   
    49    22    23 ar  
    50    23    24 ar  
    51    23    30 ar  
    52    24    25 ar  
    53    25    26 1   
    54    25    27 ar  
    55    26    56 1   
    56    26    57 1   
    57    27    28 ar  
    58    28    29 1   
    59    28    30 ar  
    60    29    58 1   
    61    29    59 1   
    62    30    31 ar  
@<TRIPOS>SUBSTRUCTURE
     1 DYP         1 TEMP              0 ****  ****    0 ROOT
