@<TRIPOS>MOLECULE
molecule
   17    17     1     0     0
SMALL
bcc


@<TRIPOS>ATOM
      1 OAA          0.0000     0.0000     0.0000 o          1 DYT      -0.825300
      2 CAI          1.2080     0.0000     0.0000 c          1 DYT       0.887600
      3 OAB          1.8800     0.0060    -1.1620 o          1 DYT      -0.825300
      4 CAK          1.9610     0.0000     1.3060 c3         1 DYT      -0.015300
      5 Cl1          1.8810     1.6420     2.0460 cl         1 DYT      -0.263400
      6 CAF          1.3320    -1.0200     2.2570 c3         1 DYT      -0.006100
      7 CAJ          2.1580    -1.1090     3.5150 cc         1 DYT      -0.199900
      8 CAE          3.2530    -1.8680     3.7040 cc         1 DYT       0.289200
      9 NAG          3.6930    -1.6580     4.9540 nc         1 DYT      -0.712000
     10 CAD          2.9120    -0.7970     5.5460 cd         1 DYT       0.360400
     11 NAH          1.9400    -0.4290     4.6830 na         1 DYT      -0.286900
     12 HAK          2.9960    -0.2650     1.1260 h1         1 DYT       0.072700
     13 HAG          0.3250    -0.7070     2.5070 hc         1 DYT       0.069700
     14 HAF          1.3000    -1.9900     1.7760 hc         1 DYT       0.069700
     15 HAE          3.7010    -2.5330     2.9760 h4         1 DYT       0.038100
     16 HAD          3.0240    -0.4370     6.5620 h5         1 DYT       0.047100
     17 HAH          1.1990     0.2190     4.8630 hn         1 DYT       0.298700
@<TRIPOS>BOND
     1     1     2 1
     2     2     3 1
     3     2     4 1
     4     9     8 1
     5     9    10 2
     6     8     7 2
     7    10    11 1
     8     4     5 1
     9     4     6 1
    10     7    11 1
    11     7     6 1
    12     4    12 1
    13     6    13 1
    14     6    14 1
    15     8    15 1
    16    10    16 1
    17    11    17 1
@<TRIPOS>SUBSTRUCTURE
     1 DYT         1 TEMP              0 ****  ****    0 ROOT
