@<TRIPOS>MOLECULE
DYV
   64    69     1     0     0
SMALL
bcc


@<TRIPOS>ATOM
      1 C2           0.0000     0.0000     0.0000 ca         1 DYV      -0.053000
      2 C3           1.3810     0.0000     0.0000 ca         1 DYV      -0.152000
      3 C4           2.0710     0.0000     1.2030 ca         1 DYV      -0.137200
      4 C5           1.3560    -0.0000     2.4130 ca         1 DYV      -0.163600
      5 C6          -0.0370     0.0000     2.3980 ca         1 DYV      -0.008000
      6 C7           2.1110    -0.0010     3.6790 c          1 DYV       0.618100
      7 C8           4.1310    -0.0020     2.4270 cc         1 DYV       0.170400
      8 C11          3.4990    -1.0560    -1.8020 ca         1 DYV      -0.118000
      9 C12          3.2800    -1.0500    -3.1630 ca         1 DYV      -0.091000
     10 C13          3.7470    -0.0050    -3.9420 ca         1 DYV      -0.180000
     11 C14          4.4380     1.0460    -3.3590 ca         1 DYV       0.084100
     12 C18          4.3980     1.4140     5.3680 ca         1 DYV      -0.105300
     13 C19          3.9710     2.4680     4.5790 ca         1 DYV      -0.115000
     14 C20          4.1280     3.7680     5.0160 ca         1 DYV      -0.038000
     15 C21          4.7170     4.0190     6.2560 ca         1 DYV      -0.099600
     16 C22          5.1460     2.9510     7.0470 ca         1 DYV      -0.109000
     17 C23          4.9790     1.6550     6.6010 ca         1 DYV      -0.024600
     18 C25          4.8990     4.6630     9.1270 c3         1 DYV       0.019000
     19 C26          4.3500     5.4200    10.3630 c3         1 DYV      -0.050400
     20 C27          5.0030     6.8170    10.1880 c3         1 DYV      -0.005400
     21 C28          5.0090     7.0080     8.6570 c3         1 DYV      -0.081300
     22 C1          -0.7060    -0.0000     1.1920 ca         1 DYV      -0.120000
     23 N1           3.4600    -0.0020     3.6340 n          1 DYV       0.007700
     24 N2           3.4580    -0.0010     1.2390 na         1 DYV       0.272200
     25 C9           4.4200    -0.0010     0.2590 cc         1 DYV       0.225000
     26 N3           5.5850    -0.0020     0.8660 nd         1 DYV      -0.268000
     27 N4           5.4160    -0.0020     2.1410 nd         1 DYV      -0.345000
     28 C10          4.1890    -0.0010    -1.2020 ca         1 DYV      -0.106500
     29 C15          4.6280     1.9950    -5.5310 c3         1 DYV       0.247700
     30 C16          4.6660     1.0530    -1.9880 ca         1 DYV       0.146100
     31 O2           5.3430     2.0810    -1.4140 oh         1 DYV      -0.464100
     32 Cl1          5.5050     0.3250     7.5860 cl         1 DYV      -0.053400
     33 C24          4.8880     5.4080     6.7290 c          1 DYV       0.607700
     34 O3           4.9930     6.3150     5.9270 o          1 DYV      -0.612100
     35 N5           4.9280     5.6710     8.0510 n          1 DYV      -0.105800
     36 C29          6.2820     7.6910     8.2300 c          1 DYV       0.974600
     37 O4           6.5660     8.9230     8.6810 o          1 DYV      -0.882800
     38 O5           7.0480     7.1300     7.4830 o          1 DYV      -0.882800
     39 O6           1.5270    -0.0010     4.7470 o          1 DYV      -0.647500
     40 H1          -0.5370    -0.0010    -0.9410 ha         1 DYV       0.104000
     41 H2           1.9240     0.0000    -0.9380 ha         1 DYV       0.149000
     42 H3          -0.5920    -0.0000     3.3280 ha         1 DYV       0.132000
     43 H4           3.1310    -1.8760    -1.1980 ha         1 DYV       0.115000
     44 H5           2.7420    -1.8690    -3.6260 ha         1 DYV       0.104000
     45 H6           3.5700    -0.0080    -5.0110 ha         1 DYV       0.120000
     46 H7           5.1950    -0.4490     4.7140 h1         1 DYV       0.057200
     47 H8           3.6890    -0.5750     5.6330 h1         1 DYV       0.057200
     48 H9           3.5130     2.2740     3.6170 ha         1 DYV       0.098000
     49 H10          3.7930     4.5920     4.3980 ha         1 DYV       0.125000
     50 H11          5.6020     3.1380     8.0110 ha         1 DYV       0.153000
     51 H13          5.8990     4.2960     9.3250 h1         1 DYV       0.017200
     52 H14          3.2700     5.4920    10.3220 hc         1 DYV       0.008200
     53 H15          4.6820     4.9510    11.2810 hc         1 DYV       0.008200
     54 H16          4.4030     7.5810    10.6660 hc         1 DYV       0.025200
     55 H17          6.0150     6.8160    10.5760 hc         1 DYV       0.025200
     56 H18          4.1500     7.5970     8.3580 h1         1 DYV       0.029700
     57 H19         -1.7890    -0.0000     1.1770 ha         1 DYV       0.109000
     58 H20          3.5570     1.9700    -5.6910 h1         1 DYV      -0.002633
     59 H21          5.0470     2.8630    -6.0260 h1         1 DYV      -0.002633
     60 H22          5.0750     1.0960    -5.9380 h1         1 DYV      -0.002633
     61 H23          6.1780     2.1850    -1.8410 ho         1 DYV       0.415000
     62 C17          4.2230    -0.0020     4.8850 c3         1 DYV       0.085300
     63 H12          4.2360     3.8490     8.8610 h1         1 DYV       0.017200
     64 O1           4.8980     2.0680    -4.1300 os         1 DYV      -0.301900
@<TRIPOS>BOND
     1     1     2 ar  
     2     1    22 ar  
     3     1    40 1   
     4     2     3 ar  
     5     2    41 1   
     6     3     4 ar  
     7     3    24 1   
     8     4     5 ar  
     9     4     6 1   
    10     5    22 ar  
    11     5    42 1   
    12     6    23 1   
    13     6    39 2   
    14     7    23 1   
    15     7    24 1   
    16     7    27 2   
    17     8     9 ar  
    18     8    28 ar  
    19     8    43 1   
    20     9    10 ar  
    21     9    44 1   
    22    10    11 ar  
    23    10    45 1   
    24    11    30 ar  
    25    11    64 1   
    26    12    13 ar  
    27    12    17 ar  
    28    12    62 1   
    29    13    14 ar  
    30    13    48 1   
    31    14    15 ar  
    32    14    49 1   
    33    15    16 ar  
    34    15    33 1   
    35    16    17 ar  
    36    16    50 1   
    37    17    32 1   
    38    18    19 1   
    39    18    35 1   
    40    18    51 1   
    41    18    63 1   
    42    19    20 1   
    43    19    52 1   
    44    19    53 1   
    45    20    21 1   
    46    20    54 1   
    47    20    55 1   
    48    21    35 1   
    49    21    36 1   
    50    21    56 1   
    51    22    57 1   
    52    23    62 1   
    53    24    25 1   
    54    25    26 2   
    55    25    28 1   
    56    26    27 1   
    57    28    30 ar  
    58    29    58 1   
    59    29    59 1   
    60    29    60 1   
    61    29    64 1   
    62    30    31 1   
    63    31    61 1   
    64    33    34 2   
    65    33    35 1   
    66    36    37 1   
    67    36    38 1   
    68    46    62 1   
    69    47    62 1   
@<TRIPOS>SUBSTRUCTURE
     1 DYV         1 TEMP              0 ****  ****    0 ROOT
