@<TRIPOS>MOLECULE
molecule
   29    29     1     0     0
SMALL
bcc


@<TRIPOS>ATOM
      1 C49          0.0000     0.0000     0.0000 c3         1 DYW      -0.205400
      2 C50          1.5060     0.0000     0.0000 c          1 DYW       0.870600
      3 C02         -2.0120     0.1230     1.4440 c          1 DYW       0.656100
      4 C04         -4.0360     1.5960     1.2520 c3         1 DYW      -0.008300
      5 C05         -4.2210     3.1160     1.0620 c3         1 DYW      -0.123400
      6 C06         -2.8690     3.6960     1.5530 c3         1 DYW      -0.084400
      7 C07         -1.8740     2.6070     1.0790 c3         1 DYW       0.086000
      8 C08         -4.6750     0.8540     0.1070 c          1 DYW       0.884600
      9 C48         -0.5110     0.0000     1.4410 c3         1 DYW       0.026500
     10 N03         -2.5890     1.3300     1.2750 n          1 DYW      -0.440800
     11 N53         -0.1220    -1.2550     2.0990 nz         1 DYW      -0.850600
     12 O47         -5.9970     0.9600    -0.1070 o          1 DYW      -0.825300
     13 O51          2.1790    -0.0000    -1.1630 o          1 DYW      -0.836800
     14 O52          2.1110     0.0000     1.0460 o          1 DYW      -0.836800
     15 H1          -0.3610     0.8840    -0.5110 hc         1 DYW       0.093200
     16 H2          -0.3610    -0.8840    -0.5110 hc         1 DYW       0.093200
     17 H3          -4.4800     1.2880     2.1900 h1         1 DYW       0.049700
     18 H4          -4.7230     3.4540     0.1630 hc         1 DYW       0.091200
     19 H5          -4.7950     2.8510     1.9420 hc         1 DYW       0.091200
     20 H6          -2.6590     4.6450     1.0740 hc         1 DYW       0.041700
     21 H7          -2.8570     3.7860     2.6320 hc         1 DYW       0.041700
     22 H8          -1.6350     2.7460     0.0320 h1         1 DYW       0.044200
     23 H9          -0.9750     2.6300     1.6840 h1         1 DYW       0.044200
     24 H11         -0.0790     0.8370     1.9770 hx         1 DYW       0.106700
     25 H12          0.5220    -1.8170     1.5780 hn         1 DYW       0.474800
     26 H13          0.3010    -0.5200     2.6310 hn         1 DYW       0.474800
     27 O1          -3.9990     0.1650    -0.6190 o          1 DYW      -0.825300
     28 H533        -0.8690    -1.7300     2.5650 hn         1 DYW       0.474800
     29 O01         -2.7020    -0.8630     1.5960 o          1 DYW      -0.607100
@<TRIPOS>BOND
     1     6     7 1
     2     6     5 1
     3    13     2 1
     4     7    10 1
     5     2    14 1
     6     2     1 1
     7     1     9 1
     8     5     4 1
     9    10     4 1
    10    10     3 1
    11     4     8 1
    12    11     9 1
    13     9     3 1
    14     3    29 2
    15     8    12 1
    16     1    15 1
    17     1    16 1
    18     4    17 1
    19     5    18 1
    20     5    19 1
    21     6    20 1
    22     6    21 1
    23     7    22 1
    24     7    23 1
    25     9    24 1
    26    11    25 1
    27    11    26 1
    28     8    27 1
    29    28    11 1
@<TRIPOS>SUBSTRUCTURE
     1 DYW         1 TEMP              0 ****  ****    0 ROOT
