@<TRIPOS>MOLECULE
DYW
   29    29     1     0     0
SMALL
bcc


@<TRIPOS>ATOM
      1 C49          0.0000     0.0000     0.0000 c3         1 DYW      -0.149400
      2 C50          1.5060     0.0000     0.0000 c          1 DYW       0.961600
      3 C02         -2.0120     0.1230     1.4440 c          1 DYW       0.571100
      4 C04         -4.0360     1.5960     1.2520 c3         1 DYW      -0.100300
      5 C05         -4.2210     3.1160     1.0620 c3         1 DYW      -0.083400
      6 C06         -2.8690     3.6960     1.5530 c3         1 DYW      -0.015400
      7 C07         -1.8740     2.6070     1.0790 c3         1 DYW       0.026000
      8 C08         -4.6750     0.8540     0.1070 c          1 DYW       0.970600
      9 C48         -0.5110     0.0000     1.4410 c3         1 DYW      -0.123500
     10 N03         -2.5890     1.3300     1.2750 n          1 DYW      -0.063800
     11 N53         -0.1220    -1.2550     2.0990 nz         1 DYW      -0.046600
     12 O47         -5.9970     0.9600    -0.1070 o          1 DYW      -0.874300
     13 O51          2.1790    -0.0000    -1.1630 o          1 DYW      -0.880800
     14 O52          2.1110     0.0000     1.0460 o          1 DYW      -0.880800
     15 H1          -0.3610     0.8840    -0.5110 hc         1 DYW       0.060200
     16 H2          -0.3610    -0.8840    -0.5110 hc         1 DYW       0.060200
     17 H3          -4.4800     1.2880     2.1900 h1         1 DYW       0.031700
     18 H4          -4.7230     3.4540     0.1630 hc         1 DYW       0.066700
     19 H5          -4.7950     2.8510     1.9420 hc         1 DYW       0.066700
     20 H6          -2.6590     4.6450     1.0740 hc         1 DYW       0.010700
     21 H7          -2.8570     3.7860     2.6320 hc         1 DYW       0.010700
     22 H8          -1.6350     2.7460     0.0320 h1         1 DYW       0.020700
     23 H9          -0.9750     2.6300     1.6840 h1         1 DYW       0.020700
     24 H11         -0.0790     0.8370     1.9770 hx         1 DYW       0.090700
     25 H12          0.5220    -1.8170     1.5780 hn         1 DYW       0.258800
     26 H13          0.3010    -0.5200     2.6310 hn         1 DYW       0.258800
     27 O1          -3.9990     0.1650    -0.6190 o          1 DYW      -0.874300
     28 H533        -0.8690    -1.7300     2.5650 hn         1 DYW       0.258800
     29 O01         -2.7020    -0.8630     1.5960 o          1 DYW      -0.651100
@<TRIPOS>BOND
     1     1     2 1   
     2     1     9 1   
     3     1    15 1   
     4     1    16 1   
     5     2    13 1   
     6     2    14 1   
     7     3     9 1   
     8     3    10 1   
     9     3    29 2   
    10     4     5 1   
    11     4     8 1   
    12     4    10 1   
    13     4    17 1   
    14     5     6 1   
    15     5    18 1   
    16     5    19 1   
    17     6     7 1   
    18     6    20 1   
    19     6    21 1   
    20     7    10 1   
    21     7    22 1   
    22     7    23 1   
    23     8    12 1   
    24     8    27 1   
    25     9    11 1   
    26     9    24 1   
    27    11    25 1   
    28    11    26 1   
    29    11    28 1   
@<TRIPOS>SUBSTRUCTURE
     1 DYW         1 TEMP              0 ****  ****    0 ROOT
