@<TRIPOS>MOLECULE
molecule
   48    51     1     0     0
SMALL
bcc


@<TRIPOS>ATOM
      1 CAY          0.0000     0.0000     0.0000 ca         1 DYY      -0.023000
      2 CAZ          1.3870     0.0000     0.0000 ca         1 DYY       0.040100
      3 OBA          2.0560     0.0000     1.1850 os         1 DYY      -0.319900
      4 CBB          3.4370    -0.3740     1.1460 c3         1 DYY       0.097400
      5 CAO          4.1040     0.3720    -0.0180 c3         1 DYY       0.098400
      6 OAN          3.4390     0.0010    -1.2290 os         1 DYY      -0.318900
      7 CAM          2.0780     0.0060    -1.2060 ca         1 DYY       0.116100
      8 CAL          1.3770     0.0150    -2.4030 ca         1 DYY      -0.147000
      9 CAK         -0.0050     0.0180    -2.3950 ca         1 DYY      -0.031000
     10 CAX         -0.6920     0.0080    -1.1960 ca         1 DYY      -0.319500
     11 SAW         -2.4540    -0.0000    -1.1920 sy         1 DYY       1.428200
     12 OBD         -2.8560    -0.5340    -2.4460 o          1 DYY      -0.633300
     13 OAJ         -2.8500    -0.5580     0.0530 o          1 DYY      -0.633300
     14 NAV         -2.9520     1.5800    -1.1760 n3         1 DYY      -0.816500
     15 CAU         -3.1790     2.3060    -2.4330 c3         1 DYY       0.216300
     16 CAT         -4.6070     2.8650    -2.4250 c3         1 DYY       0.223300
     17 CAI         -3.1790     2.2800     0.0960 c3         1 DYY       0.216300
     18 CAH         -4.6080     2.8380     0.1000 c3         1 DYY       0.223300
     19 NAG         -4.8300     3.5660    -1.1530 n3         1 DYY      -0.812500
     20 SAF         -5.3270     5.1450    -1.1330 sy         1 DYY       1.423200
     21 OAS         -5.9660     5.3800    -2.3810 o          1 DYY      -0.615800
     22 OAB         -5.9690     5.3480     0.1180 o          1 DYY      -0.615800
     23 CAE         -3.8800     6.1480    -1.1190 ca         1 DYY      -0.403500
     24 CAD         -3.3090     6.5230     0.0860 ca         1 DYY       0.253400
     25 FAA         -3.8610     6.1190     1.2510 f          1 DYY      -0.107900
     26 CAC         -2.1700     7.3110     0.0970 ca         1 DYY      -0.206000
     27 CAP         -1.6040     7.7250    -1.0950 ca         1 DYY      -0.027000
     28 CAQ         -2.1730     7.3520    -2.2970 ca         1 DYY      -0.206000
     29 CAR         -3.3080     6.5580    -2.3110 ca         1 DYY       0.253400
     30 FBC         -3.8600     6.1890    -3.4870 f          1 DYY      -0.107900
     31 HAY         -0.5410    -0.0070     0.9380 ha         1 DYY       0.163000
     32 HBB          3.9160    -0.0990     2.0770 h1         1 DYY       0.072200
     33 HBBA         3.5200    -1.4430     0.9880 h1         1 DYY       0.072200
     34 HAO          3.9890     1.4390     0.1350 h1         1 DYY       0.072700
     35 HAOA         5.1430     0.0740    -0.0800 h1         1 DYY       0.072700
     36 HAL          1.9130     0.0230    -3.3450 ha         1 DYY       0.152000
     37 HAK         -0.5510     0.0240    -3.3310 ha         1 DYY       0.154000
     38 HAU         -2.4710     3.1210    -2.5140 h1         1 DYY       0.060950
     39 HAUA        -3.0600     1.6280    -3.2700 h1         1 DYY       0.060950
     40 HAT         -5.3160     2.0510    -2.5190 h1         1 DYY       0.072950
     41 HATA        -4.7290     3.5580    -3.2480 h1         1 DYY       0.072950
     42 HAI         -2.4710     3.0940     0.1940 h1         1 DYY       0.060950
     43 HAIA        -3.0590     1.5850     0.9190 h1         1 DYY       0.060950
     44 HAH         -5.3160     2.0220     0.1750 h1         1 DYY       0.072950
     45 HAHA        -4.7310     3.5130     0.9380 h1         1 DYY       0.072950
     46 HAC         -1.7240     7.6050     1.0390 ha         1 DYY       0.156000
     47 HAP         -0.7150     8.3430    -1.0860 ha         1 DYY       0.147000
     48 HAQ         -1.7270     7.6740    -3.2300 ha         1 DYY       0.156000
@<TRIPOS>BOND
     1     2     1 ar
     2     1    10 ar
     3     1    31 1
     4     3     2 1
     5     2     7 ar
     6     4     3 1
     7     5     4 1
     8     4    32 1
     9     4    33 1
    10     5     6 1
    11     5    34 1
    12     5    35 1
    13     6     7 1
    14     7     8 ar
    15     8     9 ar
    16     8    36 1
    17    10     9 ar
    18     9    37 1
    19    10    11 1
    20    14    11 1
    21    12    11 2
    22    11    13 2
    23    17    14 1
    24    14    15 1
    25    16    15 1
    26    15    38 1
    27    15    39 1
    28    19    16 1
    29    16    40 1
    30    16    41 1
    31    18    17 1
    32    17    42 1
    33    17    43 1
    34    18    19 1
    35    18    44 1
    36    18    45 1
    37    20    19 1
    38    22    20 2
    39    20    21 2
    40    20    23 1
    41    24    23 ar
    42    23    29 ar
    43    25    24 1
    44    24    26 ar
    45    26    27 ar
    46    26    46 1
    47    27    28 ar
    48    27    47 1
    49    29    28 ar
    50    28    48 1
    51    29    30 1
@<TRIPOS>SUBSTRUCTURE
     1 DYY         1 TEMP              0 ****  ****    0 ROOT
