@<TRIPOS>MOLECULE
molecule
   34    36     1     0     0
SMALL
bcc


@<TRIPOS>ATOM
      1 C4           0.0000     0.0000     0.0000 cc         1 DYZ       0.504200
      2 C5           1.3900     0.0000     0.0000 cd         1 DYZ      -0.364200
      3 C6           2.0780     0.0000     1.2330 c          1 DYZ       0.752100
      4 C8           0.6490    -0.0020    -2.0640 cc         1 DYZ       0.461400
      5 N1           1.3700     0.0000     2.3820 ns         1 DYZ      -0.556500
      6 N3          -0.6690     0.0010     1.2140 n          1 DYZ      -0.416300
      7 CAN          3.6700    -1.4440    -1.8850 c3         1 DYZ      -0.115100
      8 N7           1.7760    -0.0000    -1.3250 na         1 DYZ      -0.134900
      9 N9          -0.3950     0.0040    -1.2750 nd         1 DYZ      -0.729000
     10 O6           3.2950     0.0000     1.2590 o          1 DYZ      -0.640500
     11 C2           0.0260    -0.0000     2.3670 c          1 DYZ       0.822500
     12 O2          -0.5780    -0.0000     3.4220 o          1 DYZ      -0.659500
     13 CAK         -2.1330     0.0000     1.2410 c3         1 DYZ       0.166300
     14 CAL         -2.6350    -1.4200     1.2520 ca         1 DYZ      -0.126300
     15 CAP         -2.8440    -2.0710     2.4530 ca         1 DYZ      -0.103000
     16 CAQ         -3.3040    -3.3740     2.4630 ca         1 DYZ      -0.137000
     17 CAR         -3.5570    -4.0270     1.2720 ca         1 DYZ      -0.119000
     18 CAS         -3.3490    -3.3760     0.0690 ca         1 DYZ      -0.137000
     19 CAT         -2.8940    -2.0710     0.0600 ca         1 DYZ      -0.103000
     20 H1           0.6130    -0.0070    -3.1470 h5         1 DYZ       0.076100
     21 H2           1.8530    -0.0010     3.2590 hn         1 DYZ       0.369500
     22 H3           4.2770    -1.6410    -1.0100 hc         1 DYZ       0.053367
     23 H4           4.2670    -1.5830    -2.7780 hc         1 DYZ       0.053367
     24 H5           2.8300    -2.1280    -1.9030 hc         1 DYZ       0.053367
     25 H6           3.7800     0.5820    -1.1750 h1         1 DYZ       0.074700
     26 H7           3.1700     0.4210    -2.8280 h1         1 DYZ       0.074700
     27 H8          -2.4780     0.5120     2.1320 h1         1 DYZ       0.080700
     28 H9          -2.5110     0.5100     0.3630 h1         1 DYZ       0.080700
     29 H10         -2.6460    -1.5590     3.3870 ha         1 DYZ       0.146000
     30 H11         -3.4670    -3.8840     3.4050 ha         1 DYZ       0.130000
     31 H12         -3.9160    -5.0490     1.2800 ha         1 DYZ       0.128000
     32 H13         -3.5490    -3.8870    -0.8650 ha         1 DYZ       0.130000
     33 H14         -2.7310    -1.5600    -0.8820 ha         1 DYZ       0.146000
     34 CAM          3.1510    -0.0060    -1.8330 c3         1 DYZ       0.039300
@<TRIPOS>BOND
     1    34     7 1
     2    34     8 1
     3     4     8 1
     4     4     9 2
     5     8     2 1
     6     9     1 1
     7     2     3 1
     8     2     1 2
     9    10     3 2
    10     3     5 1
    11     1     6 1
    12     5    11 1
    13     6    11 1
    14     6    13 1
    15    11    12 2
    16    13    14 1
    17    19    14 ar
    18    19    18 ar
    19    14    15 ar
    20    18    17 ar
    21    15    16 ar
    22    17    16 ar
    23     4    20 1
    24     5    21 1
    25     7    22 1
    26     7    23 1
    27     7    24 1
    28    34    25 1
    29    34    26 1
    30    13    27 1
    31    13    28 1
    32    15    29 1
    33    16    30 1
    34    17    31 1
    35    18    32 1
    36    19    33 1
@<TRIPOS>SUBSTRUCTURE
     1 DYZ         1 TEMP              0 ****  ****    0 ROOT
