@<TRIPOS>MOLECULE
molecule
   51    54     1     0     0
SMALL
bcc


@<TRIPOS>ATOM
      1 OAC          0.0000     0.0000     0.0000 o          1 DZ0      -0.525100
      2 CAU          1.2160     0.0000     0.0000 c          1 DZ0       0.594900
      3 CAZ          2.0780     0.0000     1.1980 ca         1 DZ0      -0.224600
      4 CAK          1.7470     0.0010     2.5600 ca         1 DZ0      -0.018000
      5 CAY          2.7410     0.0000     3.5110 ca         1 DZ0      -0.241000
      6 CAX          4.0770    -0.0010     3.1240 ca         1 DZ0       0.173100
      7 OAR          5.0550    -0.0020     4.0650 os         1 DZ0      -0.325900
      8 CAA          4.6390    -0.0010     5.4330 c3         1 DZ0       0.127700
      9 CAJ          4.4110    -0.0030     1.7760 ca         1 DZ0      -0.164000
     10 CAW          3.4210    -0.0020     0.8170 ca         1 DZ0      -0.018300
     11 CAP          3.4990    -0.0030    -0.6910 c3         1 DZ0       0.004100
     12 CAT          2.0750    -0.0080    -1.1950 ce         1 DZ0      -0.226400
     13 CAD          1.6770    -0.0110    -2.4650 c2         1 DZ0      -0.067200
     14 CBA          2.6970    -0.0090    -3.5750 c3         1 DZ0      -0.052500
     15 CAM          2.5140    -1.2590    -4.4400 c3         1 DZ0      -0.069400
     16 CAO          3.5130    -1.2230    -5.5990 c3         1 DZ0       0.161300
     17 CAL          2.5070     1.2370    -4.4430 c3         1 DZ0      -0.069400
     18 CAN          3.5050     1.2020    -5.6020 c3         1 DZ0       0.161300
     19 NBB          3.2880    -0.0130    -6.4020 n3         1 DZ0      -0.724600
     20 CAQ          4.1350    -0.0120    -7.6010 c3         1 DZ0       0.209100
     21 CAV          3.7080     1.1060    -8.5170 ca         1 DZ0      -0.081300
     22 CAH          4.2810     2.3570    -8.3940 ca         1 DZ0      -0.117000
     23 CAF          3.8890     3.3830    -9.2330 ca         1 DZ0      -0.129000
     24 CAE          2.9240     3.1570   -10.1960 ca         1 DZ0      -0.127000
     25 CAG          2.3510     1.9060   -10.3210 ca         1 DZ0      -0.129000
     26 CAI          2.7470     0.8780    -9.4840 ca         1 DZ0      -0.117000
     27 H1           0.7070     0.0020     2.8640 ha         1 DZ0       0.145000
     28 H2           2.4820     0.0010     4.5630 ha         1 DZ0       0.140000
     29 H3           4.0460     0.8840     5.6300 h1         1 DZ0       0.044367
     30 H4           4.0440    -0.8840     5.6300 h1         1 DZ0       0.044367
     31 H5           5.5110    -0.0010     6.0760 h1         1 DZ0       0.044367
     32 H6           5.4520    -0.0040     1.4770 ha         1 DZ0       0.146000
     33 H7           4.0160    -0.8910    -1.0340 hc         1 DZ0       0.066700
     34 H8           0.6200    -0.0080    -2.7020 ha         1 DZ0       0.151000
     35 H10          3.6960    -0.0060    -3.1540 hc         1 DZ0       0.054700
     36 H11          2.6920    -2.1430    -3.8380 hc         1 DZ0       0.054450
     37 H12          1.5050    -1.2800    -4.8330 hc         1 DZ0       0.054450
     38 H13          3.3740    -2.0980    -6.2210 h1         1 DZ0       0.036950
     39 H14          4.5220    -1.2100    -5.2040 h1         1 DZ0       0.036950
     40 H15          2.6810     2.1230    -3.8450 hc         1 DZ0       0.054450
     41 H16          1.4980     1.2510    -4.8370 hc         1 DZ0       0.054450
     42 H17          4.5140     1.1980    -5.2080 h1         1 DZ0       0.036950
     43 H18          3.3600     2.0740    -6.2280 h1         1 DZ0       0.036950
     44 H20          5.1690     0.1320    -7.3130 h1         1 DZ0       0.039200
     45 H21          4.0330    -0.9600    -8.1160 h1         1 DZ0       0.039200
     46 H22          5.0370     2.5350    -7.6390 ha         1 DZ0       0.130500
     47 H23          4.3380     4.3640    -9.1370 ha         1 DZ0       0.129500
     48 H24          2.6150     3.9610   -10.8530 ha         1 DZ0       0.129000
     49 H25          1.5960     1.7280   -11.0770 ha         1 DZ0       0.129500
     50 H26          2.2970    -0.1030    -9.5820 ha         1 DZ0       0.130500
     51 H27          4.0100     0.8880    -1.0350 hc         1 DZ0       0.066700
@<TRIPOS>BOND
     1    24    23 ar
     2    24    25 ar
     3    23    22 ar
     4    25    26 ar
     5    22    21 ar
     6    26    21 ar
     7    21    20 1
     8    20    19 1
     9    19    16 1
    10    19    18 1
    11    16    15 1
    12    15    14 1
    13    18    17 1
    14    17    14 1
    15    14    13 1
    16    13    12 2
    17    12    11 1
    18    12     2 1
    19    11    10 1
    20     1     2 2
    21     2     3 1
    22    10     3 ar
    23    10     9 ar
    24     3     4 ar
    25     9     6 ar
    26     4     5 ar
    27     6     5 ar
    28     6     7 1
    29     7     8 1
    30     4    27 1
    31     5    28 1
    32     8    29 1
    33     8    30 1
    34     8    31 1
    35     9    32 1
    36    11    33 1
    37    13    34 1
    38    14    35 1
    39    15    36 1
    40    15    37 1
    41    16    38 1
    42    16    39 1
    43    17    40 1
    44    17    41 1
    45    18    42 1
    46    18    43 1
    47    20    44 1
    48    20    45 1
    49    22    46 1
    50    23    47 1
    51    24    48 1
    52    25    49 1
    53    26    50 1
    54    11    51 1
@<TRIPOS>SUBSTRUCTURE
     1 DZ0         1 TEMP              0 ****  ****    0 ROOT
