@<TRIPOS>MOLECULE
DZ0
   51    54     1     0     0
SMALL
bcc


@<TRIPOS>ATOM
      1 OAC          0.0000     0.0000     0.0000 o          1 DZ0      -0.558100
      2 CAU          1.2160     0.0000     0.0000 c          1 DZ0       0.658900
      3 CAZ          2.0780     0.0000     1.1980 ca         1 DZ0      -0.242600
      4 CAK          1.7470     0.0010     2.5600 ca         1 DZ0       0.028000
      5 CAY          2.7410     0.0000     3.5110 ca         1 DZ0      -0.236000
      6 CAX          4.0770    -0.0010     3.1240 ca         1 DZ0       0.185100
      7 OAR          5.0550    -0.0020     4.0650 os         1 DZ0      -0.305900
      8 CAA          4.6390    -0.0010     5.4330 c3         1 DZ0       0.244700
      9 CAJ          4.4110    -0.0030     1.7760 ca         1 DZ0      -0.146000
     10 CAW          3.4210    -0.0020     0.8170 ca         1 DZ0      -0.020300
     11 CAP          3.4990    -0.0030    -0.6910 c3         1 DZ0       0.089100
     12 CAT          2.0750    -0.0080    -1.1950 ce         1 DZ0      -0.249400
     13 CAD          1.6770    -0.0110    -2.4650 c2         1 DZ0      -0.036200
     14 CBA          2.6970    -0.0090    -3.5750 c3         1 DZ0      -0.033500
     15 CAM          2.5140    -1.2590    -4.4400 c3         1 DZ0      -0.016400
     16 CAO          3.5130    -1.2230    -5.5990 c3         1 DZ0       0.146300
     17 CAL          2.5070     1.2370    -4.4430 c3         1 DZ0      -0.016400
     18 CAN          3.5050     1.2020    -5.6020 c3         1 DZ0       0.146300
     19 NBB          3.2880    -0.0130    -6.4020 n3         1 DZ0      -0.534600
     20 CAQ          4.1350    -0.0120    -7.6010 c3         1 DZ0       0.212100
     21 CAV          3.7080     1.1060    -8.5170 ca         1 DZ0      -0.091300
     22 CAH          4.2810     2.3570    -8.3940 ca         1 DZ0      -0.091500
     23 CAF          3.8890     3.3830    -9.2330 ca         1 DZ0      -0.101000
     24 CAE          2.9240     3.1570   -10.1960 ca         1 DZ0      -0.100000
     25 CAG          2.3510     1.9060   -10.3210 ca         1 DZ0      -0.101000
     26 CAI          2.7470     0.8780    -9.4840 ca         1 DZ0      -0.091500
     27 H1           0.7070     0.0020     2.8640 ha         1 DZ0       0.110000
     28 H2           2.4820     0.0010     4.5630 ha         1 DZ0       0.125000
     29 H3           4.0440    -0.8840     5.6300 h1         1 DZ0      -0.000967
     30 H4           4.0460     0.8840     5.6300 h1         1 DZ0      -0.000967
     31 H5           5.5110    -0.0010     6.0760 h1         1 DZ0      -0.000967
     32 H6           5.4520    -0.0040     1.4770 ha         1 DZ0       0.119000
     33 H7           4.0100     0.8880    -1.0350 hc         1 DZ0       0.031700
     34 H8           0.6200    -0.0080    -2.7020 ha         1 DZ0       0.122000
     35 H10          3.6960    -0.0060    -3.1540 hc         1 DZ0       0.033700
     36 H11          1.5050    -1.2800    -4.8330 hc         1 DZ0       0.024450
     37 H12          2.6920    -2.1430    -3.8380 hc         1 DZ0       0.024450
     38 H13          4.5220    -1.2100    -5.2040 h1         1 DZ0       0.012200
     39 H14          3.3740    -2.0980    -6.2210 h1         1 DZ0       0.012200
     40 H15          2.6810     2.1230    -3.8450 hc         1 DZ0       0.024450
     41 H16          1.4980     1.2510    -4.8370 hc         1 DZ0       0.024450
     42 H17          4.5140     1.1980    -5.2080 h1         1 DZ0       0.012200
     43 H18          3.3600     2.0740    -6.2280 h1         1 DZ0       0.012200
     44 H20          4.0330    -0.9600    -8.1160 h1         1 DZ0       0.011700
     45 H21          5.1690     0.1320    -7.3130 h1         1 DZ0       0.011700
     46 H22          5.0370     2.5350    -7.6390 ha         1 DZ0       0.106500
     47 H23          4.3380     4.3640    -9.1370 ha         1 DZ0       0.102500
     48 H24          2.6150     3.9610   -10.8530 ha         1 DZ0       0.102000
     49 H25          1.5960     1.7280   -11.0770 ha         1 DZ0       0.102500
     50 H26          2.2970    -0.1030    -9.5820 ha         1 DZ0       0.106500
     51 H27          4.0160    -0.8910    -1.0340 hc         1 DZ0       0.031700
@<TRIPOS>BOND
     1     1     2 2   
     2     2     3 1   
     3     2    12 1   
     4     3     4 ar  
     5     3    10 ar  
     6     4     5 ar  
     7     4    27 1   
     8     5     6 ar  
     9     5    28 1   
    10     6     7 1   
    11     6     9 ar  
    12     7     8 1   
    13     8    29 1   
    14     8    30 1   
    15     8    31 1   
    16     9    10 ar  
    17     9    32 1   
    18    10    11 1   
    19    11    12 1   
    20    11    33 1   
    21    11    51 1   
    22    12    13 2   
    23    13    14 1   
    24    13    34 1   
    25    14    15 1   
    26    14    17 1   
    27    14    35 1   
    28    15    16 1   
    29    15    36 1   
    30    15    37 1   
    31    16    19 1   
    32    16    38 1   
    33    16    39 1   
    34    17    18 1   
    35    17    40 1   
    36    17    41 1   
    37    18    19 1   
    38    18    42 1   
    39    18    43 1   
    40    19    20 1   
    41    20    21 1   
    42    20    44 1   
    43    20    45 1   
    44    21    22 ar  
    45    21    26 ar  
    46    22    23 ar  
    47    22    46 1   
    48    23    24 ar  
    49    23    47 1   
    50    24    25 ar  
    51    24    48 1   
    52    25    26 ar  
    53    25    49 1   
    54    26    50 1   
@<TRIPOS>SUBSTRUCTURE
     1 DZ0         1 TEMP              0 ****  ****    0 ROOT
