@<TRIPOS>MOLECULE
DZ1
   33    34     1     0     0
SMALL
bcc


@<TRIPOS>ATOM
      1 CAA          0.0000     0.0000     0.0000 c3         1 DZ1       0.050200
      2 CAN          1.5080     0.0000     0.0000 ca         1 DZ1      -0.044300
      3 CAH          2.1990     0.0000     1.1940 ca         1 DZ1      -0.114000
      4 CAG          3.5830     0.0000     1.1950 ca         1 DZ1      -0.073000
      5 CAI          4.2810    -0.0000     0.0010 ca         1 DZ1      -0.114000
      6 CAO          3.6020    -0.0010    -1.2000 ca         1 DZ1      -0.044300
      7 CAB          4.3660    -0.0020    -2.4990 c3         1 DZ1       0.050200
      8 CAT          2.2070    -0.0060    -1.2090 ca         1 DZ1      -0.161600
      9 CAM          1.4730    -0.0130    -2.4910 c          1 DZ1       0.596700
     10 OAC          1.1710     1.0370    -3.0240 o          1 DZ1      -0.624100
     11 NAL          1.1380    -1.1830    -3.0700 ns         1 DZ1      -0.034100
     12 CAR          0.3480    -1.1920    -4.2260 ca         1 DZ1      -0.094400
     13 CAJ          0.5380    -2.1720    -5.1910 ca         1 DZ1      -0.080000
     14 CAP         -0.2420    -2.1810    -6.3310 ca         1 DZ1       0.008100
     15 BrAE         0.0170    -3.5170    -7.6440 br         1 DZ1      -0.096600
     16 CAS         -1.2160    -1.2090    -6.5130 ca         1 DZ1       0.151100
     17 OAD         -1.9840    -1.2170    -7.6340 oh         1 DZ1      -0.481100
     18 CAQ         -1.4060    -0.2290    -5.5490 ca         1 DZ1       0.008100
     19 BrAF        -2.7340     1.0950    -5.7970 br         1 DZ1      -0.096600
     20 CAK         -0.6310    -0.2220    -4.4050 ca         1 DZ1      -0.080000
     21 HAA         -0.3610     0.0780     1.0180 hc         1 DZ1       0.014533
     22 HAAA        -0.3610     0.8430    -0.5770 hc         1 DZ1       0.014533
     23 HAAB        -0.3610    -0.9210    -0.4410 hc         1 DZ1       0.014533
     24 HAH          1.6570     0.0000     2.1320 ha         1 DZ1       0.110500
     25 HAG          4.1210     0.0010     2.1350 ha         1 DZ1       0.103000
     26 HAI          5.3650     0.0000     0.0090 ha         1 DZ1       0.110500
     27 HAB          4.0230     0.8170    -3.1200 hc         1 DZ1       0.014533
     28 HABA         4.2010    -0.9400    -3.0140 hc         1 DZ1       0.014533
     29 HABB         5.4240     0.1170    -2.2960 hc         1 DZ1       0.014533
     30 HNAL         1.4480    -2.0460    -2.6690 hn         1 DZ1       0.175500
     31 HAJ          1.2890    -2.9380    -5.0430 ha         1 DZ1       0.138000
     32 HOAD        -1.5690    -0.6980    -8.3030 ho         1 DZ1       0.411000
     33 HAK         -0.7800     0.5430    -3.6530 ha         1 DZ1       0.138000
@<TRIPOS>BOND
     1     1     2 1   
     2     1    21 1   
     3     1    22 1   
     4     1    23 1   
     5     2     3 ar  
     6     2     8 ar  
     7     3     4 ar  
     8     3    24 1   
     9     4     5 ar  
    10     4    25 1   
    11     5     6 ar  
    12     5    26 1   
    13     6     7 1   
    14     6     8 ar  
    15     7    27 1   
    16     7    28 1   
    17     7    29 1   
    18     8     9 1   
    19     9    10 2   
    20     9    11 1   
    21    11    12 1   
    22    11    30 1   
    23    12    13 ar  
    24    12    20 ar  
    25    13    14 ar  
    26    13    31 1   
    27    14    15 1   
    28    14    16 ar  
    29    16    17 1   
    30    16    18 ar  
    31    17    32 1   
    32    18    19 1   
    33    18    20 ar  
    34    20    33 1   
@<TRIPOS>SUBSTRUCTURE
     1 DZ1         1 TEMP              0 ****  ****    0 ROOT
