@<TRIPOS>MOLECULE
molecule
   27    28     1     0     0
SMALL
bcc


@<TRIPOS>ATOM
      1 CAJ          0.0000     0.0000     0.0000 ca         1 DZ2      -0.101000
      2 CAQ          1.3820     0.0000     0.0000 ca         1 DZ2      -0.027900
      3 BrAE         2.3260    -0.0010    -1.6390 br         1 DZ2      -0.063600
      4 CAP          2.0760     0.0000     1.2010 ca         1 DZ2       0.135100
      5 OAB          3.4360    -0.0000     1.2000 oh         1 DZ2      -0.501100
      6 CAR          1.3840     0.0010     2.4040 ca         1 DZ2      -0.027900
      7 BrAF         2.3310     0.0030     4.0400 br         1 DZ2      -0.063600
      8 CAK          0.0020     0.0020     2.4050 ca         1 DZ2      -0.101000
      9 CAS         -0.6940     0.0000     1.2030 ca         1 DZ2       0.055600
     10 NAL         -2.0930     0.0010     1.2040 ns         1 DZ2      -0.474100
     11 CAM         -2.7690    -0.6390     0.2290 c          1 DZ2       0.672700
     12 OAA         -2.1660    -1.2970    -0.5960 o          1 DZ2      -0.566100
     13 CAT         -4.2420    -0.5410     0.1630 ca         1 DZ2      -0.140600
     14 CAI         -4.9370     0.2140     1.1090 ca         1 DZ2      -0.091000
     15 CAN         -6.3130     0.3010     1.0420 ca         1 DZ2       0.016400
     16 ClAC        -7.1800     1.2400     2.2170 cl         1 DZ2      -0.092400
     17 CAG         -7.0040    -0.3580     0.0390 ca         1 DZ2      -0.087000
     18 CAH         -6.3210    -1.1080    -0.9010 ca         1 DZ2      -0.124000
     19 CAO         -4.9440    -1.1990    -0.8490 ca         1 DZ2       0.080400
     20 ClAD        -4.0880    -2.1350    -2.0350 cl         1 DZ2      -0.046400
     21 HAJ         -0.5420    -0.0020    -0.9380 ha         1 DZ2       0.165000
     22 HOAB         3.7510    -0.8890     1.2010 ho         1 DZ2       0.431000
     23 HAK         -0.5390     0.0030     3.3440 ha         1 DZ2       0.165000
     24 HNAL        -2.5930     0.4680     1.9350 hn         1 DZ2       0.329500
     25 HAI         -4.3940     0.7890     1.8490 ha         1 DZ2       0.144000
     26 HAG         -8.0840    -0.2890    -0.0080 ha         1 DZ2       0.155000
     27 HAH         -6.8670    -1.6200    -1.6850 ha         1 DZ2       0.158000
@<TRIPOS>BOND
     1     1     2 ar
     2     1     9 ar
     3     2     3 1
     4     2     4 ar
     5     4     5 1
     6     4     6 ar
     7     6     7 1
     8     6     8 ar
     9     8     9 ar
    10     9    10 1
    11    10    11 1
    12    11    12 2
    13    11    13 1
    14    13    14 ar
    15    13    19 ar
    16    14    15 ar
    17    15    16 1
    18    15    17 ar
    19    17    18 ar
    20    18    19 ar
    21    19    20 1
    22     1    21 1
    23     5    22 1
    24     8    23 1
    25    10    24 1
    26    14    25 1
    27    17    26 1
    28    18    27 1
@<TRIPOS>SUBSTRUCTURE
     1 DZ2         1 TEMP              0 ****  ****    0 ROOT
