@<TRIPOS>MOLECULE
DZ3
   34    35     1     0     0
SMALL
bcc


@<TRIPOS>ATOM
      1 CAA          0.0000     0.0000     0.0000 c3         1 DZ3       0.071200
      2 CAN          1.5060     0.0000     0.0000 ca         1 DZ3      -0.129800
      3 CAJ          2.1950     0.0000     1.1920 ca         1 DZ3      -0.046000
      4 CAS          2.2000    -0.0050    -1.2050 ca         1 DZ3       0.149100
      5 OAD          1.5200    -0.0090    -2.3780 oh         1 DZ3      -0.496100
      6 CAO          3.5910    -0.0040    -1.2100 ca         1 DZ3      -0.129800
      7 CAB          4.3380    -0.0080    -2.5190 c3         1 DZ3       0.071200
      8 CAK          4.2860     0.0010    -0.0210 ca         1 DZ3      -0.046000
      9 CAU          3.5920     0.0000     1.1910 ca         1 DZ3      -0.175600
     10 CAM          4.3330     0.0010     2.4680 c          1 DZ3       0.592700
     11 OAC          3.7280    -0.0000     3.5220 o          1 DZ3      -0.636100
     12 NAL          5.6810     0.0010     2.4640 ns         1 DZ3      -0.040100
     13 CAR          6.3840     0.0990     3.6720 ca         1 DZ3      -0.096400
     14 CAH          5.8820    -0.5030     4.8180 ca         1 DZ3      -0.075500
     15 CAP          6.5770    -0.4050     6.0090 ca         1 DZ3       0.006100
     16 BrAF         5.8940    -1.2250     7.5710 br         1 DZ3      -0.097100
     17 CAT          7.7760     0.2920     6.0590 ca         1 DZ3       0.152100
     18 OAE          8.4590     0.3860     7.2310 oh         1 DZ3      -0.482100
     19 CAQ          8.2770     0.8930     4.9130 ca         1 DZ3       0.006100
     20 BrAG         9.9100     1.8440     4.9820 br         1 DZ3      -0.097100
     21 CAI          7.5860     0.7920     3.7210 ca         1 DZ3      -0.075500
     22 HAA         -0.3610    -0.9520    -0.3690 hc         1 DZ3       0.010867
     23 HAAA        -0.3610     0.7960    -0.6400 hc         1 DZ3       0.010867
     24 HAAB        -0.3610     0.1560     1.0090 hc         1 DZ3       0.010867
     25 HAJ          1.6530    -0.0000     2.1310 ha         1 DZ3       0.118000
     26 HOAD         1.3610    -0.8990    -2.6460 ho         1 DZ3       0.407000
     27 HAB          4.1990    -0.9630    -3.0110 hc         1 DZ3       0.010867
     28 HABA         5.3930     0.1520    -2.3330 hc         1 DZ3       0.010867
     29 HABB         3.9590     0.7830    -3.1540 hc         1 DZ3       0.010867
     30 HAK          5.3700     0.0020    -0.0260 ha         1 DZ3       0.118000
     31 HNAL         6.1790    -0.1130     1.6030 hn         1 DZ3       0.177500
     32 HAH          4.9800    -1.1000     4.7650 ha         1 DZ3       0.139000
     33 HOAE         8.1880     1.1630     7.6920 ho         1 DZ3       0.411000
     34 HAI          7.9770     1.2610     2.8260 ha         1 DZ3       0.139000
@<TRIPOS>BOND
     1     1     2 1   
     2     1    22 1   
     3     1    23 1   
     4     1    24 1   
     5     2     3 ar  
     6     2     4 ar  
     7     3     9 ar  
     8     3    25 1   
     9     4     5 1   
    10     4     6 ar  
    11     5    26 1   
    12     6     7 1   
    13     6     8 ar  
    14     7    27 1   
    15     7    28 1   
    16     7    29 1   
    17     8     9 ar  
    18     8    30 1   
    19     9    10 1   
    20    10    11 2   
    21    10    12 1   
    22    12    13 1   
    23    12    31 1   
    24    13    14 ar  
    25    13    21 ar  
    26    14    15 ar  
    27    14    32 1   
    28    15    16 1   
    29    15    17 ar  
    30    17    18 1   
    31    17    19 ar  
    32    18    33 1   
    33    19    20 1   
    34    19    21 ar  
    35    21    34 1   
@<TRIPOS>SUBSTRUCTURE
     1 DZ3         1 TEMP              0 ****  ****    0 ROOT
