@<TRIPOS>MOLECULE
molecule
   43    45     1     0     0
SMALL
bcc


@<TRIPOS>ATOM
      1 N1           0.0000     0.0000     0.0000 nb         1 DZ4      -0.835000
      2 C2           1.3200     0.0000     0.0000 ca         1 DZ4       0.598900
      3 N3           2.0270     0.0000     1.1100 nb         1 DZ4      -0.817000
      4 C4           1.4250     0.0020     2.2950 ca         1 DZ4       0.465800
      5 C5           0.0210     0.0030     2.3490 ca         1 DZ4      -0.223200
      6 C6          -0.6880     0.0030     1.1360 ca         1 DZ4       0.686200
      7 N6          -2.0730     0.0030     1.1270 nv         1 DZ4      -1.016500
      8 N7          -0.3280     0.0050     3.6590 nc         1 DZ4      -0.615100
      9 C8           0.7460     0.0040     4.3930 cd         1 DZ4       0.400700
     10 N9           1.8530     0.0020     3.6000 na         1 DZ4      -0.259000
     11 PA           4.4140    -1.6740     9.5630 p5         1 DZ4       1.240700
     12 PB           2.6700    -2.2860    11.6320 p5         1 DZ4       1.375700
     13 PG           0.3350    -2.8110    13.3820 p5         1 DZ4       1.335900
     14 C1'          3.2460     0.0010     4.0540 c3         1 DZ4       0.259800
     15 O1A          5.0770    -0.6560    10.4090 o          1 DZ4      -0.788000
     16 O1B          3.3360    -3.5940    11.8220 o          1 DZ4      -0.817500
     17 O1G          0.9530    -2.1110    14.5310 o          1 DZ4      -0.850167
     18 C2'          3.7860     1.4440     4.0960 c3         1 DZ4      -0.161400
     19 O2A          5.1530    -3.0920     9.7500 o          1 DZ4      -0.788000
     20 O2B          3.3760    -1.1840    12.5700 o          1 DZ4      -0.817500
     21 O2G         -1.2100    -2.3760    13.2560 o          1 DZ4      -0.850167
     22 C3'          4.2150     1.6460     5.5690 c3         1 DZ4       0.099100
     23 O3'          5.4500     2.3600     5.6470 oh         1 DZ4      -0.598800
     24 N3A          2.8000    -1.8190    10.0210 n7         1 DZ4      -0.911400
     25 O3B          1.1150    -2.4130    12.0300 os         1 DZ4      -0.734800
     26 O3G          0.4290    -4.4010    13.6070 o          1 DZ4      -0.850167
     27 C4'          4.3880     0.1860     6.0610 c3         1 DZ4       0.136100
     28 O4'          3.3240    -0.5230     5.3910 os         1 DZ4      -0.375600
     29 C5'          4.2170     0.1050     7.5790 c3         1 DZ4       0.220400
     30 O5'          4.4950    -1.2260     8.0190 os         1 DZ4      -0.569200
     31 H2           1.8420    -0.0020    -0.9500 h5         1 DZ4       0.015100
     32 HN6         -2.5670     0.0030     0.2570 hn         1 DZ4       0.423300
     33 HN6A        -2.5790     0.0050     1.9900 hn         1 DZ4       0.423300
     34 H8           0.7570     0.0050     5.4770 h5         1 DZ4       0.099800
     35 H1'          3.8560    -0.5990     3.3890 h2         1 DZ4       0.070700
     36 H2'          4.6390     1.5480     3.4360 hc         1 DZ4       0.053700
     37 H2'A         3.0060     2.1470     3.8300 hc         1 DZ4       0.053700
     38 H3'          3.4360     2.1490     6.1290 h1         1 DZ4       0.053700
     39 HO3'         5.2770     3.2700     5.8200 ho         1 DZ4       0.386000
     40 HN3A         2.1100    -1.2180     9.6160 hn         1 DZ4       0.354800
     41 H4'          5.3520    -0.2040     5.7580 h1         1 DZ4       0.068700
     42 H5'          4.9020     0.7940     8.0570 h1         1 DZ4       0.029700
     43 H5'A         3.1990     0.3670     7.8420 h1         1 DZ4       0.029700
@<TRIPOS>BOND
     1     2     1 ar
     2     1     6 ar
     3     3     2 ar
     4     2    31 1
     5     3     4 ar
     6    10     4 1
     7     4     5 ar
     8     5     8 1
     9     5     6 ar
    10     6     7 1
    11     7    32 1
    12     7    33 1
    13     9     8 2
    14    10     9 1
    15     9    34 1
    16    14    10 1
    17    30    11 1
    18    15    11 1
    19    11    19 1
    20    11    24 1
    21    16    12 1
    22    24    12 1
    23    12    20 1
    24    12    25 1
    25    17    13 1
    26    13    25 1
    27    13    21 1
    28    13    26 1
    29    28    14 1
    30    14    18 1
    31    14    35 1
    32    22    18 1
    33    18    36 1
    34    18    37 1
    35    27    22 1
    36    22    23 1
    37    22    38 1
    38    23    39 1
    39    24    40 1
    40    28    27 1
    41    27    29 1
    42    27    41 1
    43    29    30 1
    44    29    42 1
    45    29    43 1
@<TRIPOS>SUBSTRUCTURE
     1 DZ4         1 TEMP              0 ****  ****    0 ROOT
