@<TRIPOS>MOLECULE
molecule
   19    19     1     0     0
SMALL
bcc


@<TRIPOS>ATOM
      1 O01          0.0000     0.0000     0.0000 o          1 DZ5      -0.824800
      2 C02          1.2160     0.0000     0.0000 c          1 DZ5       0.873800
      3 O03          1.8910     0.0000     1.1670 o          1 DZ5      -0.824800
      4 C04          1.9500    -0.0080    -1.2720 ce         1 DZ5       0.036400
      5 C05          1.2720    -0.0140    -2.4450 cf         1 DZ5      -0.130200
      6 C06          1.9920    -0.2260    -3.7090 ca         1 DZ5      -0.040800
      7 C07          3.0180    -1.1740    -3.7840 ca         1 DZ5      -0.089500
      8 C08          3.6880    -1.3670    -4.9720 ca         1 DZ5      -0.177000
      9 C09          3.3490    -0.6240    -6.0930 ca         1 DZ5       0.101900
     10 F10          4.0100    -0.8180    -7.2540 f          1 DZ5      -0.162900
     11 C11          2.3330     0.3180    -6.0260 ca         1 DZ5      -0.177000
     12 C12          1.6510     0.5180    -4.8450 ca         1 DZ5      -0.089500
     13 S13          3.7110    -0.0100    -1.2730 sh         1 DZ5      -0.421400
     14 H2           0.1890    -0.0110    -2.4390 ha         1 DZ5       0.165000
     15 H3           3.2840    -1.7550    -2.9100 ha         1 DZ5       0.146500
     16 H4           4.4830    -2.1010    -5.0310 ha         1 DZ5       0.129500
     17 H5           2.0710     0.8940    -6.9060 ha         1 DZ5       0.129500
     18 H6           0.8570     1.2540    -4.7940 ha         1 DZ5       0.146500
     19 H7           4.1550     1.0780    -0.6560 hs         1 DZ5       0.208800
@<TRIPOS>BOND
     1    13     4 1
     2     1     2 1
     3     4     2 1
     4     4     5 2
     5     2     3 1
     6     7     8 ar
     7     7     6 ar
     8     8     9 ar
     9     5     6 1
    10     6    12 ar
    11     9    10 1
    12     9    11 ar
    13    12    11 ar
    14     5    14 1
    15     7    15 1
    16     8    16 1
    17    11    17 1
    18    12    18 1
    19    13    19 1
@<TRIPOS>SUBSTRUCTURE
     1 DZ5         1 TEMP              0 ****  ****    0 ROOT
