@<TRIPOS>MOLECULE
DZ7
   55    58     1     0     0
SMALL
bcc


@<TRIPOS>ATOM
      1 OAC          0.0000     0.0000     0.0000 o          1 DZ7      -0.558100
      2 CAU          1.2170     0.0000     0.0000 c          1 DZ7       0.656900
      3 CAZ          2.0790     0.0000     1.1970 ca         1 DZ7      -0.197600
      4 CAK          1.7470    -0.0010     2.5600 ca         1 DZ7      -0.098000
      5 CAY          2.7430    -0.0010     3.5130 ca         1 DZ7       0.097100
      6 OAS          2.4190    -0.0010     4.8350 os         1 DZ7      -0.294900
      7 CAB          1.0280    -0.0020     5.1620 c3         1 DZ7       0.239700
      8 CAX          4.0810    -0.0000     3.1240 ca         1 DZ7       0.153100
      9 OAR          5.0620    -0.0020     4.0640 os         1 DZ7      -0.288900
     10 CAA          6.4120    -0.0010     3.5930 c3         1 DZ7       0.240700
     11 CAJ          4.4130    -0.0010     1.7760 ca         1 DZ7      -0.182000
     12 CAW          3.4210     0.0010     0.8170 ca         1 DZ7      -0.055300
     13 CAP          3.5000     0.0020    -0.6910 c3         1 DZ7       0.093100
     14 CAT          2.0760    -0.0050    -1.1950 ce         1 DZ7      -0.248400
     15 CAD          1.6780    -0.0070    -2.4650 c2         1 DZ7      -0.036200
     16 CBA          2.6990    -0.0030    -3.5750 c3         1 DZ7      -0.032500
     17 CAM          2.5140    -1.2490    -4.4440 c3         1 DZ7      -0.016900
     18 CAO          3.5120    -1.2090    -5.6040 c3         1 DZ7       0.146800
     19 CAL          2.5090     1.2460    -4.4400 c3         1 DZ7      -0.016900
     20 CAN          3.5070     1.2150    -5.5990 c3         1 DZ7       0.146800
     21 NBB          3.2900     0.0040    -6.4010 n3         1 DZ7      -0.533600
     22 CAQ          4.1370     0.0070    -7.6010 c3         1 DZ7       0.212100
     23 CAV          3.7110     1.1300    -8.5130 ca         1 DZ7      -0.092300
     24 CAH          4.2860     2.3800    -8.3840 ca         1 DZ7      -0.091500
     25 CAF          3.8950     3.4100    -9.2200 ca         1 DZ7      -0.101000
     26 CAE          2.9290     3.1880   -10.1850 ca         1 DZ7      -0.100000
     27 CAG          2.3560     1.9380   -10.3130 ca         1 DZ7      -0.101000
     28 CAI          2.7500     0.9060    -9.4810 ca         1 DZ7      -0.091500
     29 H1           0.7070    -0.0020     2.8630 ha         1 DZ7       0.132000
     30 H2           0.5590     0.8820     4.7480 h1         1 DZ7      -0.001300
     31 H3           0.9110    -0.0020     6.2390 h1         1 DZ7      -0.001300
     32 H4           0.5600    -0.8870     4.7470 h1         1 DZ7      -0.001300
     33 H5           7.0890    -0.0010     4.4390 h1         1 DZ7      -0.001633
     34 H6           6.5850    -0.8860     2.9920 h1         1 DZ7      -0.001633
     35 H7           6.5840     0.8830     2.9930 h1         1 DZ7      -0.001633
     36 H8           5.4540    -0.0010     1.4760 ha         1 DZ7       0.124000
     37 H9           4.0110     0.8930    -1.0340 hc         1 DZ7       0.029200
     38 H10          0.6210    -0.0050    -2.7010 ha         1 DZ7       0.122000
     39 H12          3.6970    -0.0010    -3.1550 hc         1 DZ7       0.033700
     40 H13          2.6920    -2.1350    -3.8460 hc         1 DZ7       0.024450
     41 H14          1.5050    -1.2680    -4.8370 hc         1 DZ7       0.024450
     42 H15          4.5210    -1.2000    -5.2100 h1         1 DZ7       0.012200
     43 H16          3.3710    -2.0810    -6.2300 h1         1 DZ7       0.012200
     44 H17          1.5000     1.2620    -4.8340 hc         1 DZ7       0.024450
     45 H18          2.6820     2.1310    -3.8390 hc         1 DZ7       0.024450
     46 H19          3.3630     2.0890    -6.2220 h1         1 DZ7       0.012200
     47 H20          4.5160     1.2080    -5.2040 h1         1 DZ7       0.012200
     48 H22          4.0330    -0.9380    -8.1200 h1         1 DZ7       0.011700
     49 H23          5.1720     0.1490    -7.3130 h1         1 DZ7       0.011700
     50 H24          5.0430     2.5540    -7.6280 ha         1 DZ7       0.106500
     51 H25          4.3460     4.3900    -9.1200 ha         1 DZ7       0.102000
     52 H26          2.6220     3.9950   -10.8390 ha         1 DZ7       0.102000
     53 H27          1.6010     1.7640   -11.0700 ha         1 DZ7       0.102000
     54 H28          2.2990    -0.0740    -9.5820 ha         1 DZ7       0.106500
     55 H29          4.0190    -0.8860    -1.0340 hc         1 DZ7       0.029200
@<TRIPOS>BOND
     1     1     2 2   
     2     2     3 1   
     3     2    14 1   
     4     3     4 ar  
     5     3    12 ar  
     6     4     5 ar  
     7     4    29 1   
     8     5     6 1   
     9     5     8 ar  
    10     6     7 1   
    11     7    30 1   
    12     7    31 1   
    13     7    32 1   
    14     8     9 1   
    15     8    11 ar  
    16     9    10 1   
    17    10    33 1   
    18    10    34 1   
    19    10    35 1   
    20    11    12 ar  
    21    11    36 1   
    22    12    13 1   
    23    13    14 1   
    24    13    37 1   
    25    13    55 1   
    26    14    15 2   
    27    15    16 1   
    28    15    38 1   
    29    16    17 1   
    30    16    19 1   
    31    16    39 1   
    32    17    18 1   
    33    17    40 1   
    34    17    41 1   
    35    18    21 1   
    36    18    42 1   
    37    18    43 1   
    38    19    20 1   
    39    19    44 1   
    40    19    45 1   
    41    20    21 1   
    42    20    46 1   
    43    20    47 1   
    44    21    22 1   
    45    22    23 1   
    46    22    48 1   
    47    22    49 1   
    48    23    24 ar  
    49    23    28 ar  
    50    24    25 ar  
    51    24    50 1   
    52    25    26 ar  
    53    25    51 1   
    54    26    27 ar  
    55    26    52 1   
    56    27    28 ar  
    57    27    53 1   
    58    28    54 1   
@<TRIPOS>SUBSTRUCTURE
     1 DZ7         1 TEMP              0 ****  ****    0 ROOT
