@<TRIPOS>MOLECULE
molecule
   55    58     1     0     0
SMALL
bcc


@<TRIPOS>ATOM
      1 OAC          0.0000     0.0000     0.0000 o          1 DZ7      -0.524100
      2 CAU          1.2170     0.0000     0.0000 c          1 DZ7       0.593900
      3 CAZ          2.0790     0.0000     1.1970 ca         1 DZ7      -0.185600
      4 CAK          1.7470    -0.0010     2.5600 ca         1 DZ7      -0.122000
      5 CAY          2.7430    -0.0010     3.5130 ca         1 DZ7       0.099100
      6 OAS          2.4190    -0.0010     4.8350 os         1 DZ7      -0.314900
      7 CAB          1.0280    -0.0020     5.1620 c3         1 DZ7       0.125700
      8 CAX          4.0810    -0.0000     3.1240 ca         1 DZ7       0.149100
      9 OAR          5.0620    -0.0020     4.0640 os         1 DZ7      -0.307900
     10 CAA          6.4120    -0.0010     3.5930 c3         1 DZ7       0.125700
     11 CAJ          4.4130    -0.0010     1.7760 ca         1 DZ7      -0.197000
     12 CAW          3.4210     0.0010     0.8170 ca         1 DZ7      -0.050300
     13 CAP          3.5000     0.0020    -0.6910 c3         1 DZ7       0.007100
     14 CAT          2.0760    -0.0050    -1.1950 ce         1 DZ7      -0.225400
     15 CAD          1.6780    -0.0070    -2.4650 c2         1 DZ7      -0.067200
     16 CBA          2.6990    -0.0030    -3.5750 c3         1 DZ7      -0.051500
     17 CAM          2.5140    -1.2490    -4.4440 c3         1 DZ7      -0.070400
     18 CAO          3.5120    -1.2090    -5.6040 c3         1 DZ7       0.161800
     19 CAL          2.5090     1.2460    -4.4400 c3         1 DZ7      -0.070400
     20 CAN          3.5070     1.2150    -5.5990 c3         1 DZ7       0.161800
     21 NBB          3.2900     0.0040    -6.4010 n3         1 DZ7      -0.724600
     22 CAQ          4.1370     0.0070    -7.6010 c3         1 DZ7       0.209100
     23 CAV          3.7110     1.1300    -8.5130 ca         1 DZ7      -0.081300
     24 CAH          4.2860     2.3800    -8.3840 ca         1 DZ7      -0.117000
     25 CAF          3.8950     3.4100    -9.2200 ca         1 DZ7      -0.129000
     26 CAE          2.9290     3.1880   -10.1850 ca         1 DZ7      -0.127000
     27 CAG          2.3560     1.9380   -10.3130 ca         1 DZ7      -0.129000
     28 CAI          2.7500     0.9060    -9.4810 ca         1 DZ7      -0.117000
     29 H1           0.7070    -0.0020     2.8630 ha         1 DZ7       0.155000
     30 H2           0.5590     0.8820     4.7480 h1         1 DZ7       0.042700
     31 H3           0.9110    -0.0020     6.2390 h1         1 DZ7       0.042700
     32 H4           0.5600    -0.8870     4.7470 h1         1 DZ7       0.042700
     33 H5           7.0890    -0.0010     4.4390 h1         1 DZ7       0.042367
     34 H6           6.5850    -0.8860     2.9920 h1         1 DZ7       0.042367
     35 H7           6.5840     0.8830     2.9930 h1         1 DZ7       0.042367
     36 H8           5.4540    -0.0010     1.4760 ha         1 DZ7       0.142000
     37 H9           4.0110     0.8930    -1.0340 hc         1 DZ7       0.063700
     38 H10          0.6210    -0.0050    -2.7010 ha         1 DZ7       0.151000
     39 H12          3.6970    -0.0010    -3.1550 hc         1 DZ7       0.054700
     40 H13          1.5050    -1.2680    -4.8370 hc         1 DZ7       0.054700
     41 H14          2.6920    -2.1350    -3.8460 hc         1 DZ7       0.054700
     42 H15          3.3710    -2.0810    -6.2300 h1         1 DZ7       0.036450
     43 H16          4.5210    -1.2000    -5.2100 h1         1 DZ7       0.036450
     44 H17          2.6820     2.1310    -3.8390 hc         1 DZ7       0.054700
     45 H18          1.5000     1.2620    -4.8340 hc         1 DZ7       0.054700
     46 H19          3.3630     2.0890    -6.2220 h1         1 DZ7       0.036450
     47 H20          4.5160     1.2080    -5.2040 h1         1 DZ7       0.036450
     48 H22          5.1720     0.1490    -7.3130 h1         1 DZ7       0.039200
     49 H23          4.0330    -0.9380    -8.1200 h1         1 DZ7       0.039200
     50 H24          5.0430     2.5540    -7.6280 ha         1 DZ7       0.130500
     51 H25          4.3460     4.3900    -9.1200 ha         1 DZ7       0.129500
     52 H26          2.6220     3.9950   -10.8390 ha         1 DZ7       0.129000
     53 H27          1.6010     1.7640   -11.0700 ha         1 DZ7       0.129500
     54 H28          2.2990    -0.0740    -9.5820 ha         1 DZ7       0.130500
     55 H29          4.0190    -0.8860    -1.0340 hc         1 DZ7       0.063700
@<TRIPOS>BOND
     1    26    25 ar
     2    26    27 ar
     3    25    24 ar
     4    27    28 ar
     5    24    23 ar
     6    28    23 ar
     7    23    22 1
     8    22    21 1
     9    18    21 1
    10    18    17 1
    11    21    20 1
    12    17    16 1
    13    20    19 1
    14    16    19 1
    15    16    15 1
    16    15    14 2
    17    14    13 1
    18    14     2 1
    19     1     2 2
    20    13    12 1
    21     2     3 1
    22    12     3 ar
    23    12    11 ar
    24     3     4 ar
    25    11     8 ar
    26     4     5 ar
    27     8     5 ar
    28     8     9 1
    29     5     6 1
    30     7     6 1
    31     9    10 1
    32     4    29 1
    33     7    30 1
    34     7    31 1
    35     7    32 1
    36    10    33 1
    37    10    34 1
    38    10    35 1
    39    11    36 1
    40    13    37 1
    41    15    38 1
    42    16    39 1
    43    17    40 1
    44    17    41 1
    45    18    42 1
    46    18    43 1
    47    19    44 1
    48    19    45 1
    49    20    46 1
    50    20    47 1
    51    22    48 1
    52    22    49 1
    53    24    50 1
    54    25    51 1
    55    26    52 1
    56    27    53 1
    57    28    54 1
    58    13    55 1
@<TRIPOS>SUBSTRUCTURE
     1 DZ7         1 TEMP              0 ****  ****    0 ROOT
