@<TRIPOS>MOLECULE
DZ8
   51    54     1     0     0
SMALL
bcc


@<TRIPOS>ATOM
      1 C96          0.0000     0.0000     0.0000 c3         1 DZ8      -0.011100
      2 C94          1.5300     0.0000     0.0000 c3         1 DZ8       0.106500
      3 C95          2.0400     0.0000     1.4420 c3         1 DZ8      -0.011100
      4 N94          2.0200    -1.2000    -0.6920 n7         1 DZ8      -0.577200
      5 C93          3.3630    -0.8790    -1.1940 c3         1 DZ8       0.139800
      6 C92          3.9360    -2.0910    -1.9300 c3         1 DZ8      -0.069400
      7 C91          5.3350    -1.7570    -2.4520 c3         1 DZ8      -0.042700
      8 N9           5.8830    -2.9190    -3.1570 na         1 DZ8       0.236000
      9 C4           6.5430    -3.9780    -2.5870 ca         1 DZ8       0.281800
     10 N3           6.8790    -4.3140    -1.3450 nb         1 DZ8      -0.687000
     11 C2           7.5280    -5.4380    -1.1060 ca         1 DZ8       0.837200
     12 F2           7.8570    -5.7410     0.1680 f          1 DZ8      -0.211200
     13 N1           7.8680    -6.2790    -2.0700 nb         1 DZ8      -0.746000
     14 C6           7.5680    -6.0260    -3.3400 ca         1 DZ8       0.611200
     15 N6           7.9290    -6.9110    -4.3400 nv         1 DZ8      -0.470500
     16 C5           6.8780    -4.8400    -3.6430 ca         1 DZ8      -0.256200
     17 N7           6.4200    -4.2700    -4.7850 nc         1 DZ8      -0.469100
     18 C8           5.8360    -3.1430    -4.5010 cd         1 DZ8       0.197800
     19 C81          5.2020    -2.2200    -5.5110 c3         1 DZ8       0.043600
     20 C1'          3.7960    -2.6800    -5.7980 ca         1 DZ8      -0.080300
     21 C6'          2.7310    -2.1060    -5.1290 ca         1 DZ8      -0.096000
     22 C5'          1.4390    -2.5280    -5.3900 ca         1 DZ8       0.067100
     23 O3'          0.2360    -2.1330    -4.8780 os         1 DZ8      -0.307900
     24 C7'         -0.6880    -3.1850    -5.2130 c3         1 DZ8       0.431200
     25 O1'         -0.1290    -3.7650    -6.4060 os         1 DZ8      -0.311900
     26 C4'          1.2140    -3.5310    -6.3300 ca         1 DZ8       0.062100
     27 C3'          2.2840    -4.1020    -6.9980 ca         1 DZ8      -0.073000
     28 C2'          3.5730    -3.6720    -6.7350 ca         1 DZ8       0.203900
     29 I            5.1900    -4.5380    -7.7480 i          1 DZ8      -0.248900
     30 H961        -0.3610     0.8740     0.5290 hc         1 DZ8       0.007867
     31 H962        -0.3610    -0.8950     0.4930 hc         1 DZ8       0.007867
     32 H963        -0.3610     0.0210    -1.0210 hc         1 DZ8       0.007867
     33 H94          1.8920     0.8840    -0.5110 h1         1 DZ8       0.032700
     34 H951         1.5340     0.7760     2.0040 hc         1 DZ8       0.007867
     35 H952         1.8400    -0.9630     1.8960 hc         1 DZ8       0.007867
     36 H953         3.1070     0.1870     1.4480 hc         1 DZ8       0.007867
     37 HN94         2.0790    -1.9590    -0.0420 hn         1 DZ8       0.262800
     38 H931         4.0080    -0.6250    -0.3610 h1         1 DZ8       0.010700
     39 H932         3.3030    -0.0380    -1.8740 h1         1 DZ8       0.010700
     40 H921         3.9950    -2.9320    -1.2490 hc         1 DZ8       0.040700
     41 H922         3.2910    -2.3460    -2.7620 hc         1 DZ8       0.040700
     42 H911         5.9800    -1.5030    -1.6200 h1         1 DZ8       0.041700
     43 H912         5.2750    -0.9170    -3.1330 h1         1 DZ8       0.041700
     44 HN61         7.7480    -6.6850    -5.2980 hn         1 DZ8       0.278800
     45 HN62         8.3640    -7.7810    -4.1050 hn         1 DZ8       0.278800
     46 H811         5.7810    -2.2350    -6.4260 hc         1 DZ8       0.038200
     47 H812         5.1780    -1.2120    -5.1140 hc         1 DZ8       0.038200
     48 H6'          2.9070    -1.3100    -4.4150 ha         1 DZ8       0.125000
     49 H7'1        -1.6620    -2.7630    -5.4310 h2         1 DZ8       0.017200
     50 H7'2        -0.7080    -3.9230    -4.4200 h2         1 DZ8       0.017200
     51 H3'          2.1120    -4.8800    -7.7330 ha         1 DZ8       0.128000
@<TRIPOS>BOND
     1     1     2 1   
     2     1    30 1   
     3     1    31 1   
     4     1    32 1   
     5     2     3 1   
     6     2     4 1   
     7     2    33 1   
     8     3    34 1   
     9     3    35 1   
    10     3    36 1   
    11     4     5 1   
    12     4    37 1   
    13     5     6 1   
    14     5    38 1   
    15     5    39 1   
    16     6     7 1   
    17     6    40 1   
    18     6    41 1   
    19     7     8 1   
    20     7    42 1   
    21     7    43 1   
    22     8     9 1   
    23     8    18 1   
    24     9    10 ar  
    25     9    16 ar  
    26    10    11 ar  
    27    11    12 1   
    28    11    13 ar  
    29    13    14 ar  
    30    14    15 1   
    31    14    16 ar  
    32    15    44 1   
    33    15    45 1   
    34    16    17 1   
    35    17    18 2   
    36    18    19 1   
    37    19    20 1   
    38    19    46 1   
    39    19    47 1   
    40    20    21 ar  
    41    20    28 ar  
    42    21    22 ar  
    43    21    48 1   
    44    22    23 1   
    45    22    26 ar  
    46    23    24 1   
    47    24    25 1   
    48    24    49 1   
    49    24    50 1   
    50    25    26 1   
    51    26    27 ar  
    52    27    28 ar  
    53    27    51 1   
    54    28    29 1   
@<TRIPOS>SUBSTRUCTURE
     1 DZ8         1 TEMP              0 ****  ****    0 ROOT
