@<TRIPOS>MOLECULE
DZ9
   37    40     1     0     0
SMALL
bcc


@<TRIPOS>ATOM
      1 CAL          0.0000     0.0000     0.0000 ca         1 DZ9      -0.141000
      2 CAR          1.3830     0.0000     0.0000 ca         1 DZ9       0.123900
      3 FAC          2.0590     0.0020    -1.1700 f          1 DZ9      -0.127900
      4 CAG          2.0760     0.0000     1.2000 ca         1 DZ9      -0.148000
      5 CAE          1.3870    -0.0010     2.3980 ca         1 DZ9      -0.058000
      6 CAH          0.0070    -0.0010     2.4040 ca         1 DZ9      -0.145000
      7 CAS         -0.6930     0.0050     1.2040 ca         1 DZ9      -0.063400
      8 NAN         -2.0910     0.0050     1.2070 ns         1 DZ9      -0.031100
      9 CAQ         -2.7670     0.6800     0.2570 c          1 DZ9       0.624300
     10 OAB         -2.1640     1.2200    -0.6530 o          1 DZ9      -0.632100
     11 CAW         -4.1790     0.7630     0.3170 cc         1 DZ9      -0.131600
     12 CAT         -4.9490     1.4170    -0.5890 cd         1 DZ9       0.154800
     13 NAA         -4.4230     2.0840    -1.6870 nv         1 DZ9      -0.520600
     14 SAP         -5.1640     0.0270     1.5650 ss         1 DZ9      -0.290900
     15 CAY         -6.6550     0.6250     0.8490 ca         1 DZ9       0.515600
     16 NAM         -7.9190     0.4700     1.2520 nb         1 DZ9      -0.533000
     17 CAX         -6.3730     1.3570    -0.3110 ca         1 DZ9      -0.239100
     18 CAK         -7.4510     1.9210    -1.0360 ca         1 DZ9      -0.004000
     19 CAJ         -8.7220     1.7350    -0.5840 ca         1 DZ9      -0.221300
     20 CAU         -8.9360     0.9960     0.5860 ca         1 DZ9       0.498800
     21 CAV        -10.3120     0.7910     1.0780 cc         1 DZ9      -0.071600
     22 CAI        -10.6480     0.0980     2.1870 cd         1 DZ9      -0.081000
     23 CAD        -12.0000     0.0450     2.4440 cd         1 DZ9      -0.132000
     24 CAF        -12.7710     0.6870     1.5580 cc         1 DZ9       0.017900
     25 SAO        -11.7660     1.4190     0.3150 ss         1 DZ9      -0.262800
     26 HAL         -0.5420     0.0050    -0.9380 ha         1 DZ9       0.160000
     27 HAG          3.1590     0.0000     1.1990 ha         1 DZ9       0.118000
     28 HAE          1.9320    -0.0030     3.3350 ha         1 DZ9       0.106000
     29 HAH         -0.5310     0.0010     3.3440 ha         1 DZ9       0.110000
     30 HNAN        -2.5890    -0.5200     1.8980 hn         1 DZ9       0.180500
     31 HNAA        -4.3190     1.6060    -2.5600 hn         1 DZ9       0.285300
     32 HNAB        -4.1790     3.0520    -1.6140 hn         1 DZ9       0.285300
     33 HAK         -7.2670     2.4900    -1.9400 ha         1 DZ9       0.114000
     34 HAJ         -9.5600     2.1610    -1.1220 ha         1 DZ9       0.131000
     35 HAI         -9.9130    -0.3780     2.8240 ha         1 DZ9       0.137000
     36 HAD        -12.4090    -0.4790     3.2990 ha         1 DZ9       0.123000
     37 HAF        -13.8520     0.7500     1.6030 h4         1 DZ9       0.149000
@<TRIPOS>BOND
     1     1     2 ar  
     2     1     7 ar  
     3     1    26 1   
     4     2     3 1   
     5     2     4 ar  
     6     4     5 ar  
     7     4    27 1   
     8     5     6 ar  
     9     5    28 1   
    10     6     7 ar  
    11     6    29 1   
    12     7     8 1   
    13     8     9 1   
    14     8    30 1   
    15     9    10 2   
    16     9    11 1   
    17    11    12 2   
    18    11    14 1   
    19    12    13 1   
    20    12    17 1   
    21    13    31 1   
    22    13    32 1   
    23    14    15 1   
    24    15    16 ar  
    25    15    17 ar  
    26    16    20 ar  
    27    17    18 ar  
    28    18    19 ar  
    29    18    33 1   
    30    19    20 ar  
    31    19    34 1   
    32    20    21 1   
    33    21    22 2   
    34    21    25 1   
    35    22    23 1   
    36    22    35 1   
    37    23    24 2   
    38    23    36 1   
    39    24    25 1   
    40    24    37 1   
@<TRIPOS>SUBSTRUCTURE
     1 DZ9         1 TEMP              0 ****  ****    0 ROOT
