@<TRIPOS>MOLECULE
molecule
   22    21     1     0     0
SMALL
bcc


@<TRIPOS>ATOM
      1 O10          0.0000     0.0000     0.0000 o          1 DZA      -0.857300
      2 C09          1.3430     0.0000     0.0000 c          1 DZA       0.889600
      3 O11          1.9460     0.0000     1.0470 o          1 DZA      -0.857300
      4 C08          2.0970    -0.0020    -1.3040 c3         1 DZA      -0.167400
      5 C07          3.6000    -0.0030    -1.0250 c3         1 DZA      -0.132400
      6 C02          4.3550    -0.0050    -2.3300 c          1 DZA       0.659100
      7 O01          3.7480    -0.0050    -3.3800 o          1 DZA      -0.588100
      8 N03          5.7020    -0.0050    -2.3290 ns         1 DZA      -0.483300
      9 N04          6.3860    -0.0070    -3.5120 n3         1 DZA      -0.435600
     10 C06          7.1710     1.2240    -3.6680 c3         1 DZA       0.133100
     11 C05          7.2420    -1.1950    -3.6240 c3         1 DZA       0.133100
     12 H081         1.8360     0.8820    -1.8730 hc         1 DZA       0.045700
     13 H082         1.8340    -0.8870    -1.8720 hc         1 DZA       0.045700
     14 H071         3.8620     0.8820    -0.4570 hc         1 DZA       0.063700
     15 H072         3.8610    -0.8870    -0.4560 hc         1 DZA       0.063700
     16 H03          6.2030    -0.0070    -1.4620 hn         1 DZA       0.290500
     17 H061         7.9200     1.2770    -2.8870 h1         1 DZA       0.033033
     18 H062         6.5140     2.0830    -3.5970 h1         1 DZA       0.033033
     19 H063         7.6590     1.2220    -4.6360 h1         1 DZA       0.033033
     20 H051         7.7150    -1.2090    -4.5980 h1         1 DZA       0.033033
     21 H052         6.6390    -2.0870    -3.5020 h1         1 DZA       0.033033
     22 H053         8.0030    -1.1650    -2.8530 h1         1 DZA       0.033033
@<TRIPOS>BOND
     1     1     2 1
     2     2     3 1
     3     2     4 1
     4     4     5 1
     5     5     6 1
     6     6     7 2
     7     6     8 1
     8     8     9 1
     9     9    10 1
    10     9    11 1
    11     4    12 1
    12     4    13 1
    13     5    14 1
    14     5    15 1
    15     8    16 1
    16    10    17 1
    17    10    18 1
    18    10    19 1
    19    11    20 1
    20    11    21 1
    21    11    22 1
@<TRIPOS>SUBSTRUCTURE
     1 DZA         1 TEMP              0 ****  ****    0 ROOT
