@<TRIPOS>MOLECULE
DZB
   38    40     1     0     0
SMALL
bcc


@<TRIPOS>ATOM
      1 C3           0.0000     0.0000     0.0000 cc         1 DZB       0.150500
      2 C4           1.3940     0.0000     0.0000 cc         1 DZB       0.571300
      3 N2          -0.5510     0.0000     1.1910 nd         1 DZB      -0.407100
      4 C11         -2.9300     0.0120    -2.4150 c3         1 DZB       0.044000
      5 C12         -4.4200     0.0110    -2.0680 c3         1 DZB       0.055900
      6 C13         -5.2310     0.1410    -3.3310 ca         1 DZB      -0.090300
      7 C14         -5.0010    -0.7170    -4.3910 ca         1 DZB      -0.099000
      8 C15         -5.7460    -0.5980    -5.5500 ca         1 DZB      -0.095500
      9 C16         -6.7190     0.3780    -5.6490 ca         1 DZB      -0.099500
     10 C17         -6.9490     1.2350    -4.5890 ca         1 DZB      -0.095500
     11 C18         -6.2080     1.1130    -3.4280 ca         1 DZB      -0.099000
     12 C19         -4.7730    -1.2800    -1.3740 ca         1 DZB      -0.090300
     13 C20         -5.4400    -1.2540    -0.1640 ca         1 DZB      -0.099000
     14 C21         -5.7640    -2.4380     0.4720 ca         1 DZB      -0.095500
     15 C22         -5.4220    -3.6480    -0.1020 ca         1 DZB      -0.099500
     16 C23         -4.7560    -3.6740    -1.3140 ca         1 DZB      -0.095500
     17 C24         -4.4360    -2.4900    -1.9520 ca         1 DZB      -0.099000
     18 C9          -0.7950     0.0060    -1.2420 c          1 DZB       0.499600
     19 N10         -2.1410     0.0060    -1.1810 ns         1 DZB      -0.171900
     20 N5           1.8960     0.0000     1.2090 nd         1 DZB      -0.553100
     21 O27         -0.2350     0.0100    -2.3220 o          1 DZB      -0.630100
     22 O7           2.1490    -0.0010    -1.1290 oh         1 DZB      -0.522300
     23 S6           0.5780     0.0000     2.2710 ss         1 DZB       0.343200
     24 H2          -2.6950    -0.8690    -2.9990 h1         1 DZB       0.035700
     25 H3          -2.6940     0.9000    -2.9900 h1         1 DZB       0.035700
     26 H4          -4.6380     0.8450    -1.4110 hc         1 DZB       0.035700
     27 H5          -4.2380    -1.4820    -4.3140 ha         1 DZB       0.110500
     28 H6          -5.5650    -1.2690    -6.3810 ha         1 DZB       0.103250
     29 H7          -7.3000     0.4720    -6.5580 ha         1 DZB       0.103000
     30 H8          -7.7140     1.9990    -4.6660 ha         1 DZB       0.103250
     31 H9          -6.3890     1.7840    -2.5970 ha         1 DZB       0.110500
     32 H10         -5.7090    -0.3060     0.2860 ha         1 DZB       0.110500
     33 H11         -6.2870    -2.4180     1.4210 ha         1 DZB       0.103250
     34 H12         -5.6750    -4.5750     0.3970 ha         1 DZB       0.103000
     35 H13         -4.4890    -4.6210    -1.7650 ha         1 DZB       0.103250
     36 H14         -3.9140    -2.5100    -2.9010 ha         1 DZB       0.110500
     37 H15         -2.6010     0.0500    -0.2930 hn         1 DZB       0.191500
     38 H17          3.0620    -0.0070    -0.8970 ho         1 DZB       0.415000
@<TRIPOS>BOND
     1     1     2 1   
     2     1     3 2   
     3     1    18 1   
     4     2    20 2   
     5     2    22 1   
     6     3    23 1   
     7     4     5 1   
     8     4    19 1   
     9     4    24 1   
    10     4    25 1   
    11     5     6 1   
    12     5    12 1   
    13     5    26 1   
    14     6     7 ar  
    15     6    11 ar  
    16     7     8 ar  
    17     7    27 1   
    18     8     9 ar  
    19     8    28 1   
    20     9    10 ar  
    21     9    29 1   
    22    10    11 ar  
    23    10    30 1   
    24    11    31 1   
    25    12    13 ar  
    26    12    17 ar  
    27    13    14 ar  
    28    13    32 1   
    29    14    15 ar  
    30    14    33 1   
    31    15    16 ar  
    32    15    34 1   
    33    16    17 ar  
    34    16    35 1   
    35    17    36 1   
    36    18    19 1   
    37    18    21 2   
    38    19    37 1   
    39    20    23 1   
    40    22    38 1   
@<TRIPOS>SUBSTRUCTURE
     1 DZB         1 TEMP              0 ****  ****    0 ROOT
