@<TRIPOS>MOLECULE
molecule
   36    35     1     0     0
SMALL
bcc


@<TRIPOS>ATOM
      1 C15          0.0000     0.0000     0.0000 c3         1 DZE      -0.106100
      2 C14          1.5300     0.0000     0.0000 c3         1 DZE       0.179800
      3 C16          2.0400     0.0000     1.4410 c3         1 DZE      -0.106100
      4 C17          2.0390    -1.2490    -0.7220 c3         1 DZE      -0.106100
      5 O13          2.0140     1.1860    -0.6850 os         1 DZE      -0.432900
      6 C11          1.6520     2.3780    -0.1730 c          1 DZE       0.770100
      7 O12          0.9520     2.4250     0.8190 o          1 DZE      -0.621000
      8 N10          2.0680     3.5170    -0.7600 ns         1 DZE      -0.551900
      9 C4           1.6750     4.8140    -0.2030 c3         1 DZE       0.051700
     10 C2           0.3200     5.2010    -0.7390 c          1 DZE       0.546100
     11 C1          -0.4620     6.3070    -0.0800 c3         1 DZE      -0.194100
     12 O3          -0.1370     4.6250    -1.6970 o          1 DZE      -0.503100
     13 C5           2.7040     5.8740    -0.6030 c3         1 DZE      -0.135400
     14 C6           4.0300     5.5510     0.0360 c          1 DZE       0.625100
     15 O8           5.0880     6.3490    -0.1760 os         1 DZE      -0.431900
     16 C9           6.3350     5.9780     0.4700 c3         1 DZE       0.139700
     17 O7           4.1410     4.5740     0.7370 o          1 DZE      -0.529000
     18 H15         -0.3610    -1.0170     0.0940 hc         1 DZE       0.049811
     19 H15A        -0.3610     0.5900     0.8340 hc         1 DZE       0.049811
     20 H15B        -0.3610     0.4270    -0.9280 hc         1 DZE       0.049811
     21 H16          2.0030    -1.0080     1.8380 hc         1 DZE       0.049811
     22 H16A         1.4170     0.6490     2.0450 hc         1 DZE       0.049811
     23 H16B         3.0620     0.3590     1.4620 hc         1 DZE       0.049811
     24 H17          1.6830    -2.1330    -0.2080 hc         1 DZE       0.049811
     25 H17A         3.1220    -1.2460    -0.7270 hc         1 DZE       0.049811
     26 H17B         1.6730    -1.2510    -1.7410 hc         1 DZE       0.049811
     27 HN10         2.6160     3.4780    -1.5960 hn         1 DZE       0.327500
     28 H4           1.6290     4.7440     0.8770 h1         1 DZE       0.114700
     29 H1          -0.1030     7.2650    -0.4350 hc         1 DZE       0.064033
     30 H1A         -0.3350     6.2490     0.9950 hc         1 DZE       0.064033
     31 H1B         -1.5120     6.2020    -0.3240 hc         1 DZE       0.064033
     32 H5           2.8140     5.8820    -1.6800 hc         1 DZE       0.084200
     33 H5A          2.3680     6.8470    -0.2670 hc         1 DZE       0.084200
     34 H9           7.0850     6.7320     0.2670 h1         1 DZE       0.051700
     35 H9A          6.6700     5.0220     0.0860 h1         1 DZE       0.051700
     36 H9B          6.1780     5.9020     1.5400 h1         1 DZE       0.051700
@<TRIPOS>BOND
     1     1     2 1
     2     1    18 1
     3     1    19 1
     4     1    20 1
     5     4     2 1
     6     2     3 1
     7     2     5 1
     8     3    21 1
     9     3    22 1
    10     3    23 1
    11     4    24 1
    12     4    25 1
    13     4    26 1
    14     5     6 1
    15     7     6 2
    16     6     8 1
    17     8     9 1
    18     8    27 1
    19     9    13 1
    20     9    10 1
    21     9    28 1
    22    11    10 1
    23    10    12 2
    24    11    29 1
    25    11    30 1
    26    11    31 1
    27    14    13 1
    28    13    32 1
    29    13    33 1
    30    17    14 2
    31    14    15 1
    32    15    16 1
    33    16    34 1
    34    16    35 1
    35    16    36 1
@<TRIPOS>SUBSTRUCTURE
     1 DZE         1 TEMP              0 ****  ****    0 ROOT
