@<TRIPOS>MOLECULE
DZF
   51    48     1     0     0
SMALL
bcc


@<TRIPOS>ATOM
      1 N1         -1.1450    0.5720    2.9840 na        1 DZF     -0.315000
      2 C2         -1.7460    1.7270    2.3930 c2        1 DZF      0.283000
      3 NA2        -2.5760    2.4600    3.2160 nh        1 DZF     -0.377000
      4 N3         -1.5610    2.0750    1.1020 n2        1 DZF     -0.350000
      5 C4         -0.8110    1.2450    0.2680 c2        1 DZF      0.312000
      6 O4         -0.6190    1.5330   -0.9320 o         1 DZF     -0.364000
      7 C4A        -0.2310    0.0020    0.8280 c2        1 DZF     -0.300000
      8 C5         -7.0340   -1.2290    7.1970 c1        1 DZF      0.152000
      9 C6         -5.9660   -0.6860    6.6840 c2        1 DZF     -0.548000
     10 C7          0.5500   -2.4570    3.1670 c1        1 DZF      0.155000
     11 N8          0.0940   -1.4620    2.7180 n2        1 DZF     -0.311000
     12 C8A        -0.4280   -0.3020    2.1520 c2        1 DZF      0.215000
     13 C9         -5.2420   -0.9850    5.4170 c3        1 DZF      0.029000
     14 N10        -4.0900   -1.8650    5.5420 n3        1 DZF     -0.191000
     15 C11        -3.0020    3.1750    6.6930 c2        1 DZF     -0.216000
     16 C12        -2.1130    2.3810    5.9670 c1        1 DZF     -0.125000
     17 C13        -1.8190   -0.8230    6.0640 c1        1 DZF     -0.290000
     18 C14        -2.9080   -1.2930    5.8780 c1        1 DZF     -0.072000
     19 C15        -2.9840    3.4510    9.3040 c2        1 DZF     -0.216000
     20 C16        -2.9660    3.3360    8.0230 c1        1 DZF      0.085000
     21 O          -3.8700    4.4930    4.8690 o         1 DZF     -0.408000
     22 N          -5.3700    3.7250    6.4100 n         1 DZF     -0.424000
     23 CA         -7.7180   -1.1180   11.7840 c2        1 DZF     -0.293000
     24 CB         -7.0990    0.0310   11.4860 c2        1 DZF     -0.039000
     25 CG         -7.0760    0.6280   10.1360 c3        1 DZF     -0.213000
     26 CD         -5.7920    1.4180    9.8800 c2        1 DZF      0.339000
     27 OE1        -5.4650    1.6610    8.6760 o         1 DZF     -0.594000
     28 OE2        -5.0900    1.8230   10.8530 o         1 DZF     -0.594000
     29 CT         -7.7490   -1.7060   13.1240 c2        1 DZF      0.340000
     30 O1         -6.7420   -1.4550   14.0200 oh        1 DZF     -0.309000
     31 O2         -8.6130   -2.4620   13.5820 o         1 DZF     -0.335000
     32 HN1        -1.3820    0.3050    3.9170 hn        1 DZF      0.264000
     33 HN21       -2.4580    2.4020    4.2500 hn        1 DZF      0.271500
     34 HN22       -2.9050    3.3330    2.8660 hn        1 DZF      0.271500
     35 H5          0.3400   -0.6390    0.1470 ha        1 DZF      0.162000
     36 H7         -5.5440    0.1700    7.2940 ha        1 DZF      0.272000
     37 H91        -5.9400   -1.5090    4.7010 h1        1 DZF      0.106000
     38 H92        -4.9160   -0.0160    4.9410 h1        1 DZF      0.106000
     39 HN0        -4.2830   -2.6630    6.1240 hn        1 DZF      0.194000
     40 H12        -0.8640   -0.4140    6.2630 ha        1 DZF      0.229000
     41 H13        -1.2960    1.8830    6.5050 ha        1 DZF      0.056000
     42 H15        -2.4500    4.2200    9.8770 ha        1 DZF      0.225000
     43 H16        -3.6220    2.7410    9.9100 ha        1 DZF      0.225000
     44 HN         -5.5560    3.1330    7.1910 hn        1 DZF      0.242500
     45 HA         -6.0680   -0.8950   13.6110 ho        1 DZF      0.230000
     46 HB1        -8.2760   -1.6960   11.0290 ha        1 DZF      0.158000
     47 HB2        -6.5500    0.6230   12.2450 ha        1 DZF      0.148000
     48 HG1        -7.1970   -0.1500    9.3360 hc        1 DZF      0.105500
     49 HG2        -7.9350    1.3470   10.0390 hc        1 DZF      0.105500
     50 H2         -6.1280    4.0790    5.8850 hn        1 DZF      0.242500
     51 C          -4.1000    3.8460    5.9150 c2        1 DZF      0.361000
@<TRIPOS>BOND
     1    1    2 1   
     2    1   12 1   
     3    1   32 1   
     4    2    3 1   
     5    2    4 1   
     6    3   33 1   
     7    3   34 1   
     8    4    5 1   
     9    5    6 1   
    10    5    7 1   
    11    7   12 1   
    12    7   35 1   
    13    8    9 1   
    14    9   13 1   
    15    9   36 1   
    16   10   11 1   
    17   11   12 1   
    18   13   14 1   
    19   13   37 1   
    20   13   38 1   
    21   14   18 1   
    22   14   39 1   
    23   15   16 1   
    24   15   20 1   
    25   15   51 1   
    26   16   41 1   
    27   17   18 1   
    28   17   40 1   
    29   19   20 1   
    30   19   42 1   
    31   19   43 1   
    32   21   51 1   
    33   22   44 1   
    34   22   50 1   
    35   22   51 1   
    36   23   24 1   
    37   23   29 1   
    38   23   46 1   
    39   24   25 1   
    40   24   47 1   
    41   25   26 1   
    42   25   48 1   
    43   25   49 1   
    44   26   27 1   
    45   26   28 1   
    46   29   30 1   
    47   29   31 1   
    48   30   45 1   
@<TRIPOS>SUBSTRUCTURE
     1 DZF         1 TEMP              0 ****  ****    0 ROOT
