@<TRIPOS>MOLECULE
DZG
   52    55     1     0     0
SMALL
bcc


@<TRIPOS>ATOM
      1 CAA          0.0000     0.0000     0.0000 c3         1 DZG       0.245700
      2 OAS          1.4300     0.0000     0.0000 os         1 DZG      -0.305900
      3 CAV          2.0460     0.0000     1.2110 ca         1 DZG       0.202100
      4 CAG          1.2920    -0.0050     2.3750 ca         1 DZG      -0.209000
      5 CAI          1.9210    -0.0040     3.6050 ca         1 DZG       0.047500
      6 CAF          3.4320     0.0010     1.2850 ca         1 DZG      -0.209000
      7 CAH          4.0570     0.0020     2.5170 ca         1 DZG       0.047500
      8 CAW          3.3030     0.0020     3.6750 ca         1 DZG      -0.205500
      9 SBC          4.1030     0.0030     5.2460 sy         1 DZG       1.058200
     10 OAB          5.3960     0.5530     5.0370 o          1 DZG      -0.588300
     11 OAC          3.1690     0.5420     6.1720 o          1 DZG      -0.588300
     12 NBA          4.3320    -1.5780     5.6800 n3         1 DZG      -0.530500
     13 CAP          5.5630    -2.2870     5.3020 c3         1 DZG       0.210800
     14 CAR          6.2130    -2.8520     6.5710 c3         1 DZG       0.221800
     15 CAO          3.3110    -2.2970     6.4560 c3         1 DZG       0.210800
     16 CAQ          3.9650    -2.8620     7.7230 c3         1 DZG       0.221800
     17 NBB          5.1890    -3.5720     7.3420 n3         1 DZG      -0.530500
     18 SBD          5.4170    -5.1530     7.7780 sy         1 DZG       1.060200
     19 OAD          6.8200    -5.3730     7.7740 o          1 DZG      -0.587300
     20 OAE          4.5980    -5.3760     8.9170 o          1 DZG      -0.587300
     21 CAX          4.7530    -6.1510     6.4870 ca         1 DZG      -0.167500
     22 CAL          5.5580    -6.5400     5.4320 ca         1 DZG       0.001000
     23 CAZ          5.0390    -7.3250     4.4140 ca         1 DZG       0.038100
     24 OAU          5.8430    -7.6970     3.3810 os         1 DZG      -0.296900
     25 CAN          5.3900    -8.7890     2.5730 c3         1 DZG       0.169400
     26 CAM          3.9100    -8.5580     2.2410 c3         1 DZG       0.171400
     27 OAT          3.1790    -8.4960     3.4710 os         1 DZG      -0.299900
     28 CAY          3.7070    -7.7220     4.4580 ca         1 DZG       0.120100
     29 CAK          2.9050    -7.3270     5.5180 ca         1 DZG      -0.137000
     30 CAJ          3.4300    -6.5470     6.5310 ca         1 DZG       0.001000
     31 HAA         -0.3610     0.8830     0.5130 h1         1 DZG       0.000033
     32 HAAA        -0.3610    -0.8860     0.5080 h1         1 DZG       0.000033
     33 HAAB        -0.3610     0.0030    -1.0210 h1         1 DZG       0.000033
     34 HAG          0.2100    -0.0090     2.3200 ha         1 DZG       0.124000
     35 HAI          1.3330    -0.0060     4.5140 ha         1 DZG       0.120000
     36 HAF          4.0230     0.0010     0.3780 ha         1 DZG       0.124000
     37 HAH          5.1380     0.0050     2.5750 ha         1 DZG       0.120000
     38 HAP          5.3220    -3.0980     4.6260 h1         1 DZG       0.025700
     39 HAPA         6.2460    -1.5960     4.8220 h1         1 DZG       0.025700
     40 HAR          7.0080    -3.5340     6.2980 h1         1 DZG       0.032950
     41 HARA         6.6110    -2.0400     7.1680 h1         1 DZG       0.032950
     42 HAO          2.9090    -3.1090     5.8630 h1         1 DZG       0.025700
     43 HAOA         2.5180    -1.6130     6.7320 h1         1 DZG       0.025700
     44 HAQ          4.2110    -2.0500     8.3970 h1         1 DZG       0.032950
     45 HAQA         3.2830    -3.5490     8.2070 h1         1 DZG       0.032950
     46 HAL          6.6020    -6.2520     5.4150 ha         1 DZG       0.134000
     47 HAN          5.5000    -9.7170     3.1200 h1         1 DZG       0.027700
     48 HANA         5.9660    -8.8280     1.6560 h1         1 DZG       0.027700
     49 HAM          3.8070    -7.6130     1.7220 h1         1 DZG       0.028200
     50 HAMA         3.5450    -9.3930     1.6560 h1         1 DZG       0.028200
     51 HAK          1.8670    -7.6360     5.5550 ha         1 DZG       0.121000
     52 HAJ          2.8090    -6.2640     7.3720 ha         1 DZG       0.125000
@<TRIPOS>BOND
     1     1     2 1   
     2     1    31 1   
     3     1    32 1   
     4     1    33 1   
     5     2     3 1   
     6     3     4 ar  
     7     3     6 ar  
     8     4     5 ar  
     9     4    34 1   
    10     5     8 ar  
    11     5    35 1   
    12     6     7 ar  
    13     6    36 1   
    14     7     8 ar  
    15     7    37 1   
    16     8     9 1   
    17     9    10 2   
    18     9    11 2   
    19     9    12 1   
    20    12    13 1   
    21    12    15 1   
    22    13    14 1   
    23    13    38 1   
    24    13    39 1   
    25    14    17 1   
    26    14    40 1   
    27    14    41 1   
    28    15    16 1   
    29    15    42 1   
    30    15    43 1   
    31    16    17 1   
    32    16    44 1   
    33    16    45 1   
    34    17    18 1   
    35    18    19 2   
    36    18    20 2   
    37    18    21 1   
    38    21    22 ar  
    39    21    30 ar  
    40    22    23 ar  
    41    22    46 1   
    42    23    24 1   
    43    23    28 ar  
    44    24    25 1   
    45    25    26 1   
    46    25    47 1   
    47    25    48 1   
    48    26    27 1   
    49    26    49 1   
    50    26    50 1   
    51    27    28 1   
    52    28    29 ar  
    53    29    30 ar  
    54    29    51 1   
    55    30    52 1   
@<TRIPOS>SUBSTRUCTURE
     1 DZG         1 TEMP              0 ****  ****    0 ROOT
