@<TRIPOS>MOLECULE
molecule
   63    67     1     0     0
SMALL
bcc


@<TRIPOS>ATOM
      1 C4           0.0000     0.0000     0.0000 c          1 DZH       0.706500
      2 C14          7.8010     5.0590     6.2450 ca         1 DZH      -0.105000
      3 C5           2.2960     0.0000     0.9510 ca         1 DZH       0.138600
      4 C6           2.1300     0.1730     2.3080 ca         1 DZH      -0.145300
      5 C11          5.5820     2.6000     4.4340 c3         1 DZH       0.281100
      6 C7           3.5960    -0.1800     0.4470 ca         1 DZH      -0.205000
      7 C8           4.6920    -0.1790     1.2760 ca         1 DZH       0.001000
      8 C9           4.5200     0.0040     2.6350 ca         1 DZH      -0.344500
      9 C10          3.2510     0.1770     3.1390 ca         1 DZH       0.003000
     10 C12          6.4030     3.8260     4.7440 ca         1 DZH      -0.100300
     11 C13          7.0440     3.9380     5.9640 ca         1 DZH      -0.120000
     12 N1           1.3020     0.0000     0.0000 ns         1 DZH      -0.443100
     13 N2           6.4380     1.5810     3.8210 n7         1 DZH      -0.912100
     14 C3          -0.8990     0.2000     1.1680 c3         1 DZH      -0.149400
     15 N3          10.1250     7.0720     5.1930 n          1 DZH      -0.418300
     16 C1           0.8170     0.3560     2.9990 c3         1 DZH      -0.032100
     17 C2          -0.3330    -0.4130     2.4250 c3         1 DZH      -0.086400
     18 O1          -0.5400    -0.1780    -1.0710 o          1 DZH      -0.642500
     19 S1           5.9130     0.0150     3.7140 sy         1 DZH       1.426200
     20 O2           5.4250    -0.3340     5.0020 o          1 DZH      -0.635800
     21 O3           6.9400    -0.7080     3.0490 o          1 DZH      -0.635800
     22 C15          7.9190     6.0680     5.3080 ca         1 DZH      -0.117300
     23 C16          7.2820     5.9540     4.0860 ca         1 DZH      -0.105000
     24 C17          6.5290     4.8300     3.8020 ca         1 DZH      -0.120000
     25 C18          8.7390     7.2930     5.6170 c3         1 DZH       0.165300
     26 C19         11.0120     6.5300     6.0480 c          1 DZH       0.822500
     27 C20         10.5180     7.4160     3.9100 cc         1 DZH       0.500200
     28 C21         11.8360     7.1980     3.5300 cd         1 DZH      -0.362200
     29 C22         12.7340     6.6320     4.4620 c          1 DZH       0.750100
     30 N4          12.2890     6.3090     5.6940 ns         1 DZH      -0.554500
     31 N5           9.8880     7.9510     2.8600 nc         1 DZH      -0.731000
     32 C23         10.7230     8.0780     1.8590 cd         1 DZH       0.461400
     33 N6          11.9390     7.6270     2.2230 na         1 DZH      -0.132900
     34 O4          13.8950     6.4310     4.1540 o          1 DZH      -0.637500
     35 O5          10.6480     6.2350     7.1700 o          1 DZH      -0.658500
     36 C24         13.1430     7.5980     1.3880 c3         1 DZH       0.038300
     37 C25         13.2750     6.2210     0.7320 c3         1 DZH      -0.114100
     38 H1           8.3020     5.1480     7.2020 ha         1 DZH       0.151500
     39 H2           5.1560     2.2100     5.3510 h1         1 DZH       0.051700
     40 H3           4.7850     2.8630     3.7490 h1         1 DZH       0.051700
     41 H4           3.7370    -0.3240    -0.6170 ha         1 DZH       0.139000
     42 H5           5.6850    -0.3160     0.8650 ha         1 DZH       0.155000
     43 H6           3.1190     0.3200     4.2050 ha         1 DZH       0.152000
     44 H7           6.9520     3.1470     6.6990 ha         1 DZH       0.137000
     45 H8           1.6750    -0.0000    -0.9290 hn         1 DZH       0.324500
     46 H9           7.3390     1.8330     3.4650 hn         1 DZH       0.461800
     47 H10         -1.0380     1.2620     1.3270 hc         1 DZH       0.079700
     48 H11         -1.8570    -0.2580     0.9550 hc         1 DZH       0.079700
     49 H12          0.5650     1.4090     2.9700 hc         1 DZH       0.054200
     50 H13          0.9370     0.0590     4.0340 hc         1 DZH       0.054200
     51 H14         -1.1190    -0.4630     3.1690 hc         1 DZH       0.055700
     52 H15          0.0030    -1.4180     2.1990 hc         1 DZH       0.055700
     53 H16          7.3770     6.7420     3.3490 ha         1 DZH       0.151500
     54 H17          6.0300     4.7400     2.8450 ha         1 DZH       0.137000
     55 H18          8.7150     7.4850     6.6830 h1         1 DZH       0.082200
     56 H19          8.3310     8.1450     5.0870 h1         1 DZH       0.082200
     57 H20         12.9210     5.9040     6.3550 hn         1 DZH       0.371500
     58 H21         10.4730     8.4850     0.8870 h5         1 DZH       0.076100
     59 H22         13.0680     8.3580     0.6190 h1         1 DZH       0.075200
     60 H23         14.0140     7.7900     2.0020 h1         1 DZH       0.075200
     61 H24         13.9790     5.6200     1.2950 hc         1 DZH       0.053700
     62 H25         12.3090     5.7320     0.7220 hc         1 DZH       0.053700
     63 H26         13.6320     6.3380    -0.2840 hc         1 DZH       0.053700
@<TRIPOS>BOND
     1    18     1 2
     2     1    12 1
     3     1    14 1
     4    12     3 1
     5    14    17 1
     6     6     3 ar
     7     6     7 ar
     8     3     4 ar
     9     7     8 ar
    10    17    16 1
    11     4    16 1
    12     4     9 ar
    13     8     9 ar
    14     8    19 1
    15    21    19 2
    16    19    13 1
    17    19    20 2
    18    13     5 1
    19     5    10 1
    20    11    10 ar
    21    11     2 ar
    22    10    24 ar
    23     2    22 ar
    24    24    23 ar
    25    35    26 2
    26    22    23 ar
    27    22    25 1
    28    25    15 1
    29    26    15 1
    30    26    30 1
    31    15    27 1
    32    30    29 1
    33    27    28 2
    34    27    31 1
    35    29    34 2
    36    29    28 1
    37    28    33 1
    38    31    32 2
    39    33    32 1
    40    33    36 1
    41    37    36 1
    42     2    38 1
    43     5    39 1
    44     5    40 1
    45     6    41 1
    46     7    42 1
    47     9    43 1
    48    11    44 1
    49    12    45 1
    50    13    46 1
    51    14    47 1
    52    14    48 1
    53    16    49 1
    54    16    50 1
    55    17    51 1
    56    17    52 1
    57    23    53 1
    58    24    54 1
    59    25    55 1
    60    25    56 1
    61    30    57 1
    62    32    58 1
    63    36    59 1
    64    36    60 1
    65    37    61 1
    66    37    62 1
    67    37    63 1
@<TRIPOS>SUBSTRUCTURE
     1 DZH         1 TEMP              0 ****  ****    0 ROOT
