@<TRIPOS>MOLECULE
DZH
   63    67     1     0     0
SMALL
bcc


@<TRIPOS>ATOM
      1 C4           0.0000     0.0000     0.0000 c          1 DZH       0.596500
      2 C14          7.8010     5.0590     6.2450 ca         1 DZH      -0.082500
      3 C5           2.2960     0.0000     0.9510 ca         1 DZH      -0.013400
      4 C6           2.1300     0.1730     2.3080 ca         1 DZH      -0.156300
      5 C11          5.5820     2.6000     4.4340 c3         1 DZH       0.286100
      6 C7           3.5960    -0.1800     0.4470 ca         1 DZH      -0.189000
      7 C8           4.6920    -0.1790     1.2760 ca         1 DZH       0.036000
      8 C9           4.5200     0.0040     2.6350 ca         1 DZH      -0.188500
      9 C10          3.2510     0.1770     3.1390 ca         1 DZH       0.036000
     10 C12          6.4030     3.8260     4.7440 ca         1 DZH      -0.116300
     11 C13          7.0440     3.9380     5.9640 ca         1 DZH      -0.090000
     12 N1           1.3020     0.0000     0.0000 ns         1 DZH       0.014900
     13 N2           6.4380     1.5810     3.8210 n7         1 DZH      -0.582100
     14 C3          -0.8990     0.2000     1.1680 c3         1 DZH      -0.088400
     15 N3          10.1250     7.0720     5.1930 n          1 DZH       0.003700
     16 C1           0.8170     0.3560     2.9990 c3         1 DZH       0.035900
     17 C2          -0.3330    -0.4130     2.4250 c3         1 DZH      -0.032400
     18 O1          -0.5400    -0.1780    -1.0710 o          1 DZH      -0.684500
     19 S1           5.9130     0.0150     3.7140 sy         1 DZH       1.044200
     20 O2           5.4250    -0.3340     5.0020 o          1 DZH      -0.586800
     21 O3           6.9400    -0.7080     3.0490 o          1 DZH      -0.586800
     22 C15          7.9190     6.0680     5.3080 ca         1 DZH      -0.125300
     23 C16          7.2820     5.9540     4.0860 ca         1 DZH      -0.082500
     24 C17          6.5290     4.8300     3.8020 ca         1 DZH      -0.090000
     25 C18          8.7390     7.2930     5.6170 c3         1 DZH       0.091300
     26 C19         11.0120     6.5300     6.0480 c          1 DZH       0.592500
     27 C20         10.5180     7.4160     3.9100 cc         1 DZH       0.326200
     28 C21         11.8360     7.1980     3.5300 cd         1 DZH      -0.549200
     29 C22         12.7340     6.6320     4.4620 c          1 DZH       0.676100
     30 N4          12.2890     6.3090     5.6940 ns         1 DZH      -0.119500
     31 N5           9.8880     7.9510     2.8600 nc         1 DZH      -0.634000
     32 C23         10.7230     8.0780     1.8590 cd         1 DZH       0.263400
     33 N6          11.9390     7.6270     2.2230 na         1 DZH       0.387100
     34 O4          13.8950     6.4310     4.1540 o          1 DZH      -0.685500
     35 O5          10.6480     6.2350     7.1700 o          1 DZH      -0.712500
     36 C24         13.1430     7.5980     1.3880 c3         1 DZH      -0.062700
     37 C25         13.2750     6.2210     0.7320 c3         1 DZH      -0.011100
     38 H1           8.3020     5.1480     7.2020 ha         1 DZH       0.126000
     39 H2           5.1560     2.2100     5.3510 h1         1 DZH       0.016200
     40 H3           4.7850     2.8630     3.7490 h1         1 DZH       0.016200
     41 H4           3.7370    -0.3240    -0.6170 ha         1 DZH       0.118000
     42 H5           5.6850    -0.3160     0.8650 ha         1 DZH       0.124000
     43 H6           3.1190     0.3200     4.2050 ha         1 DZH       0.125000
     44 H7           6.9520     3.1470     6.6990 ha         1 DZH       0.110000
     45 H8           1.6750    -0.0000    -0.9290 hn         1 DZH       0.167500
     46 H9           7.3390     1.8330     3.4650 hn         1 DZH       0.354800
     47 H10         -1.0380     1.2620     1.3270 hc         1 DZH       0.045700
     48 H11         -1.8570    -0.2580     0.9550 hc         1 DZH       0.045700
     49 H12          0.5650     1.4090     2.9700 hc         1 DZH       0.024700
     50 H13          0.9370     0.0590     4.0340 hc         1 DZH       0.024700
     51 H14         -1.1190    -0.4630     3.1690 hc         1 DZH       0.025200
     52 H15          0.0030    -1.4180     2.1990 hc         1 DZH       0.025200
     53 H16          7.3770     6.7420     3.3490 ha         1 DZH       0.126000
     54 H17          6.0300     4.7400     2.8450 ha         1 DZH       0.110000
     55 H18          8.7150     7.4850     6.6830 h1         1 DZH       0.050700
     56 H19          8.3310     8.1450     5.0870 h1         1 DZH       0.050700
     57 H20         12.9210     5.9040     6.3550 hn         1 DZH       0.208500
     58 H21         10.4730     8.4850     0.8870 h5         1 DZH       0.029100
     59 H22         13.0680     8.3580     0.6190 h1         1 DZH       0.048700
     60 H23         14.0140     7.7900     2.0020 h1         1 DZH       0.048700
     61 H24         13.9790     5.6200     1.2950 hc         1 DZH       0.019033
     62 H25         12.3090     5.7320     0.7220 hc         1 DZH       0.019033
     63 H26         13.6320     6.3380    -0.2840 hc         1 DZH       0.019033
@<TRIPOS>BOND
     1     1    12 1   
     2     1    14 1   
     3     1    18 2   
     4     2    11 ar  
     5     2    22 ar  
     6     2    38 1   
     7     3     4 ar  
     8     3     6 ar  
     9     3    12 1   
    10     4     9 ar  
    11     4    16 1   
    12     5    10 1   
    13     5    13 1   
    14     5    39 1   
    15     5    40 1   
    16     6     7 ar  
    17     6    41 1   
    18     7     8 ar  
    19     7    42 1   
    20     8     9 ar  
    21     8    19 1   
    22     9    43 1   
    23    10    11 ar  
    24    10    24 ar  
    25    11    44 1   
    26    12    45 1   
    27    13    19 1   
    28    13    46 1   
    29    14    17 1   
    30    14    47 1   
    31    14    48 1   
    32    15    25 1   
    33    15    26 1   
    34    15    27 1   
    35    16    17 1   
    36    16    49 1   
    37    16    50 1   
    38    17    51 1   
    39    17    52 1   
    40    19    20 2   
    41    19    21 2   
    42    22    23 ar  
    43    22    25 1   
    44    23    24 ar  
    45    23    53 1   
    46    24    54 1   
    47    25    55 1   
    48    25    56 1   
    49    26    30 1   
    50    26    35 2   
    51    27    28 2   
    52    27    31 1   
    53    28    29 1   
    54    28    33 1   
    55    29    30 1   
    56    29    34 2   
    57    30    57 1   
    58    31    32 2   
    59    32    33 1   
    60    32    58 1   
    61    33    36 1   
    62    36    37 1   
    63    36    59 1   
    64    36    60 1   
    65    37    61 1   
    66    37    62 1   
    67    37    63 1   
@<TRIPOS>SUBSTRUCTURE
     1 DZH         1 TEMP              0 ****  ****    0 ROOT
