@<TRIPOS>MOLECULE
DZJ
   34    37     1     0     0
SMALL
bcc


@<TRIPOS>ATOM
      1 C1           0.0000     0.0000     0.0000 ca         1 DZJ      -0.030600
      2 C2           1.3850     0.0000     0.0000 ca         1 DZJ      -0.083000
      3 C3           2.0900     0.0000     1.1820 ca         1 DZJ      -0.052000
      4 C12          5.7910    -1.4200     5.5310 ca         1 DZJ      -0.091300
      5 C13          6.2640    -1.9640     4.3520 ca         1 DZJ      -0.095000
      6 C14          6.7370    -3.2610     4.3290 ca         1 DZJ      -0.106000
      7 C15          6.7390    -4.0170     5.4880 ca         1 DZJ      -0.106000
      8 C16          6.2660    -3.4740     6.6670 ca         1 DZJ      -0.106000
      9 C17          5.7970    -2.1730     6.6910 ca         1 DZJ      -0.095000
     10 C4           1.4180    -0.0020     2.4150 ca         1 DZJ      -0.151400
     11 C5           0.0280    -0.0020     2.3940 ca         1 DZJ       0.028900
     12 C6          -0.6800    -0.0020     1.2030 ca         1 DZJ      -0.039000
     13 N1           2.0010    -0.0030     3.6860 n          1 DZJ       0.223500
     14 C7           1.1510    -0.0050     4.7440 cc         1 DZJ       0.355800
     15 S1          -0.4930    -0.0050     4.0830 ss         1 DZJ      -0.167100
     16 C8           3.3420    -0.0020     3.9420 c          1 DZJ       0.616700
     17 C9           3.7960    -0.0050     5.2580 cc         1 DZJ      -0.322400
     18 C10          2.8720    -0.0060     6.2910 cd         1 DZJ       0.368700
     19 N2           1.5720    -0.0070     5.9950 nd         1 DZJ      -0.570300
     20 Cl1         -0.8740     0.0070    -1.5000 cl         1 DZJ       0.000600
     21 H1           1.9210     0.0010    -0.9420 ha         1 DZJ       0.123000
     22 H2           3.1730     0.0000     1.1610 ha         1 DZJ       0.162000
     23 H3           5.7930     0.5830     4.8080 hc         1 DZJ       0.030700
     24 H4           5.4450     0.4260     6.5350 hc         1 DZJ       0.030700
     25 H5           6.2620    -1.3720     3.4440 ha         1 DZJ       0.117000
     26 H6           7.1080    -3.6870     3.4040 ha         1 DZJ       0.100500
     27 H7           7.1090    -5.0350     5.4700 ha         1 DZJ       0.099000
     28 H8           6.2700    -4.0650     7.5750 ha         1 DZJ       0.100500
     29 H9           5.4260    -1.7470     7.6150 ha         1 DZJ       0.117000
     30 H10         -1.7630    -0.0020     1.2140 ha         1 DZJ       0.128000
     31 H11          2.6000     0.3390     8.1300 ho         1 DZJ       0.418000
     32 O1           3.2830    -0.0080     7.5810 oh         1 DZJ      -0.449100
     33 O2           4.1420    -0.0020     3.0190 o          1 DZJ      -0.685500
     34 C11          5.2740    -0.0040     5.5560 c3         1 DZJ       0.129100
@<TRIPOS>BOND
     1     1     2 ar  
     2     1    12 ar  
     3     1    20 1   
     4     2     3 ar  
     5     2    21 1   
     6     3    10 ar  
     7     3    22 1   
     8     4     5 ar  
     9     4     9 ar  
    10     4    34 1   
    11     5     6 ar  
    12     5    25 1   
    13     6     7 ar  
    14     6    26 1   
    15     7     8 ar  
    16     7    27 1   
    17     8     9 ar  
    18     8    28 1   
    19     9    29 1   
    20    10    11 ar  
    21    10    13 1   
    22    11    12 ar  
    23    11    15 1   
    24    12    30 1   
    25    13    14 1   
    26    13    16 1   
    27    14    15 1   
    28    14    19 2   
    29    16    17 1   
    30    16    33 2   
    31    17    18 2   
    32    17    34 1   
    33    18    19 1   
    34    18    32 1   
    35    23    34 1   
    36    24    34 1   
    37    31    32 1   
@<TRIPOS>SUBSTRUCTURE
     1 DZJ         1 TEMP              0 ****  ****    0 ROOT
