@<TRIPOS>MOLECULE
molecule
   34    37     1     0     0
SMALL
bcc


@<TRIPOS>ATOM
      1 C1           0.0000     0.0000     0.0000 ca         1 DZJ       0.032400
      2 C2           1.3850     0.0000     0.0000 ca         1 DZJ      -0.105000
      3 C3           2.0900     0.0000     1.1820 ca         1 DZJ      -0.085000
      4 C12          5.7910    -1.4200     5.5310 ca         1 DZJ      -0.083300
      5 C13          6.2640    -1.9640     4.3520 ca         1 DZJ      -0.118000
      6 C14          6.7370    -3.2610     4.3290 ca         1 DZJ      -0.133000
      7 C15          6.7390    -4.0170     5.4880 ca         1 DZJ      -0.131000
      8 C16          6.2660    -3.4740     6.6670 ca         1 DZJ      -0.133000
      9 C17          5.7970    -2.1730     6.6910 ca         1 DZJ      -0.118000
     10 C4           1.4180    -0.0020     2.4150 ca         1 DZJ       0.012600
     11 C5           0.0280    -0.0020     2.3940 ca         1 DZJ      -0.033100
     12 C6          -0.6800    -0.0020     1.2030 ca         1 DZJ      -0.072000
     13 N1           2.0010    -0.0030     3.6860 n          1 DZJ      -0.249500
     14 C7           1.1510    -0.0050     4.7440 cc         1 DZJ       0.520800
     15 S1          -0.4930    -0.0050     4.0830 ss         1 DZJ      -0.015100
     16 C8           3.3420    -0.0020     3.9420 c          1 DZJ       0.713700
     17 C9           3.7960    -0.0050     5.2580 cc         1 DZJ      -0.301400
     18 C10          2.8720    -0.0060     6.2910 cd         1 DZJ       0.401700
     19 N2           1.5720    -0.0070     5.9950 nd         1 DZJ      -0.700300
     20 Cl1         -0.8740     0.0070    -1.5000 cl         1 DZJ      -0.086400
     21 H1           1.9210     0.0010    -0.9420 ha         1 DZJ       0.158000
     22 H2           3.1730     0.0000     1.1610 ha         1 DZJ       0.190000
     23 H3           5.7930     0.5830     4.8080 hc         1 DZJ       0.064700
     24 H4           5.4450     0.4260     6.5350 hc         1 DZJ       0.064700
     25 H5           6.2620    -1.3720     3.4440 ha         1 DZJ       0.140000
     26 H6           7.1080    -3.6870     3.4040 ha         1 DZJ       0.126500
     27 H7           7.1090    -5.0350     5.4700 ha         1 DZJ       0.125000
     28 H8           6.2700    -4.0650     7.5750 ha         1 DZJ       0.126500
     29 H9           5.4260    -1.7470     7.6150 ha         1 DZJ       0.140000
     30 H10         -1.7630    -0.0020     1.2140 ha         1 DZJ       0.158000
     31 H11          2.6000     0.3390     8.1300 ho         1 DZJ       0.442000
     32 O1           3.2830    -0.0080     7.5810 oh         1 DZJ      -0.461100
     33 O2           4.1420    -0.0020     3.0190 o          1 DZJ      -0.639500
     34 C11          5.2740    -0.0040     5.5560 c3         1 DZJ       0.049100
@<TRIPOS>BOND
     1    15    14 1
     2    15    11 1
     3    19    14 2
     4    19    18 1
     5    32    18 1
     6    14    13 1
     7    12    11 ar
     8    12     1 ar
     9    11    10 ar
    10    18    17 2
    11    20     1 1
    12    13    10 1
    13    13    16 1
    14     1     2 ar
    15    10     3 ar
    16    17    16 1
    17    17    34 1
    18    16    33 2
    19     2     3 ar
    20    34     4 1
    21     9     4 ar
    22     9     8 ar
    23     4     5 ar
    24     8     7 ar
    25     5     6 ar
    26     7     6 ar
    27     2    21 1
    28     3    22 1
    29    34    23 1
    30    34    24 1
    31     5    25 1
    32     6    26 1
    33     7    27 1
    34     8    28 1
    35     9    29 1
    36    12    30 1
    37    32    31 1
@<TRIPOS>SUBSTRUCTURE
     1 DZJ         1 TEMP              0 ****  ****    0 ROOT
