@<TRIPOS>MOLECULE
molecule
   26    26     1     0     0
SMALL
bcc


@<TRIPOS>ATOM
      1 CAJ          0.0000     0.0000     0.0000 c          1 DZK       0.882600
      2 OAL          1.2080     0.0000     0.0000 o          1 DZK      -0.875300
      3 CAK         -0.7540     0.0000     1.3060 c3         1 DZK      -0.148400
      4 CAM          0.2410    -0.0070     2.4680 c3         1 DZK      -0.028600
      5 CAN         -0.5070     0.1190     3.7700 c          1 DZK       0.887600
      6 OAP         -0.1690     0.9440     4.5850 o          1 DZK      -0.867800
      7 OAO         -1.5490    -0.6880     4.0250 o          1 DZK      -0.867800
      8 SAQ          1.1770    -1.5600     2.4550 ss         1 DZK      -0.309200
      9 CAR          2.3870    -1.3200     3.7840 c3         1 DZK       0.031000
     10 CAW          3.2550    -2.5450     3.9020 ca         1 DZK      -0.019300
     11 CAV          4.4240    -2.6370     3.1700 ca         1 DZK      -0.118000
     12 CAU          5.2210    -3.7610     3.2760 ca         1 DZK      -0.144500
     13 CAT          4.8480    -4.7950     4.1160 ca         1 DZK      -0.165000
     14 CAS          3.6800    -4.7030     4.8490 ca         1 DZK      -0.144500
     15 CAX          2.8860    -3.5760     4.7450 ca         1 DZK      -0.118000
     16 H2          -1.3800    -0.8820     1.3610 hc         1 DZK       0.049700
     17 H3          -1.3730     0.8870     1.3650 hc         1 DZK       0.049700
     18 H4           0.9250     0.8270     2.3630 h1         1 DZK       0.057700
     19 H6           1.8670    -1.1550     4.7200 h1         1 DZK       0.064700
     20 H7           3.0050    -0.4590     3.5590 h1         1 DZK       0.064700
     21 H8           4.7160    -1.8270     2.5120 ha         1 DZK       0.143000
     22 H9           6.1360    -3.8330     2.7020 ha         1 DZK       0.106000
     23 H10          5.4710    -5.6780     4.1980 ha         1 DZK       0.098000
     24 H11          3.3890    -5.5120     5.5080 ha         1 DZK       0.106000
     25 H12          1.9700    -3.5040     5.3200 ha         1 DZK       0.143000
     26 O1          -0.6710    -0.0050    -1.1620 o          1 DZK      -0.875300
@<TRIPOS>BOND
     1    13    14 ar
     2    13    12 ar
     3    14    15 ar
     4    12    11 ar
     5    15    10 ar
     6    11    10 ar
     7     6     5 1
     8    10     9 1
     9     7     5 1
    10     5     4 1
    11     9     8 1
    12     8     4 1
    13     4     3 1
    14     3     1 1
    15     2     1 1
    16     3    16 1
    17     3    17 1
    18     4    18 1
    19     9    19 1
    20     9    20 1
    21    11    21 1
    22    12    22 1
    23    13    23 1
    24    14    24 1
    25    15    25 1
    26     1    26 1
@<TRIPOS>SUBSTRUCTURE
     1 DZK         1 TEMP              0 ****  ****    0 ROOT
