@<TRIPOS>MOLECULE
DZL
   54    58     1     0     0
SMALL
bcc


@<TRIPOS>ATOM
      1 C1           0.0000     0.0000     0.0000 c3         1 DZL       0.005900
      2 C2           1.5300     0.0000     0.0000 c3         1 DZL      -0.038700
      3 C3           2.0310     0.0000     1.4210 cc         1 DZL       0.460700
      4 N4           2.2780    -1.0620     2.1180 nd         1 DZL      -0.538000
      5 C5           2.7100    -0.8920     3.3420 cd         1 DZL       0.410600
      6 C6           2.8400     0.4070     3.7110 cc         1 DZL      -0.196000
      7 S7           2.3630     1.4050     2.3390 ss         1 DZL      -0.312300
      8 C8           3.3010     0.8930     5.0150 c          1 DZL       0.647700
      9 O9           3.6090     0.1010     5.8860 o          1 DZL      -0.650100
     10 N10          3.3830     2.2180     5.2490 ns         1 DZL      -0.189900
     11 C11          3.8430     2.7050     6.5530 c3         1 DZL       0.028700
     12 C12          3.2850     4.1070     6.8000 c3         1 DZL      -0.051200
     13 C13          3.7730     5.0520     5.7010 c3         1 DZL      -0.024400
     14 C14          5.3030     5.1030     5.7150 c3         1 DZL      -0.035700
     15 C15          5.8620     3.7000     5.4670 c3         1 DZL      -0.024400
     16 C16          5.3720     2.7550     6.5670 c3         1 DZL      -0.051200
     17 C17          5.8530     3.2630     7.9270 c3         1 DZL      -0.026900
     18 C18          5.2940     4.6650     8.1750 c3         1 DZL       0.170800
     19 C19          5.7830     5.6100     7.0770 c3         1 DZL      -0.051400
     20 C20          3.7650     4.6150     8.1610 c3         1 DZL      -0.026900
     21 O21          5.7430     5.1400     9.4460 oh         1 DZL      -0.583800
     22 C22          3.0340    -2.0410     4.2620 c3         1 DZL       0.108800
     23 C23          1.7320    -2.6830     4.7780 c3         1 DZL      -0.047400
     24 C24          1.8290    -4.1580     4.3200 c3         1 DZL      -0.059400
     25 C25          3.3520    -4.3290     4.0920 c3         1 DZL       0.210400
     26 O26          3.7550    -3.0550     3.5430 os         1 DZL      -0.393600
     27 H11C        -0.3610     0.1410    -1.0120 hc         1 DZL       0.008367
     28 H12C        -0.3610     0.8060     0.6280 hc         1 DZL       0.008367
     29 H13C        -0.3610    -0.9470     0.3840 hc         1 DZL       0.008367
     30 H21C         1.8910    -0.8850    -0.5110 hc         1 DZL       0.030200
     31 H22C         1.8910     0.8850    -0.5110 hc         1 DZL       0.030200
     32 H22          3.6280    -1.6930     5.0990 h1         1 DZL       0.082700
     33 H10          3.0770     2.8690     4.5530 hn         1 DZL       0.189500
     34 H11          3.4970     2.0350     7.3310 h1         1 DZL       0.061700
     35 H12          2.2020     4.0700     6.7910 hc         1 DZL       0.039700
     36 H16          5.7680     1.7620     6.3920 hc         1 DZL       0.039700
     37 H131         3.3770     6.0450     5.8760 hc         1 DZL       0.018950
     38 H132         3.4330     4.6930     4.7370 hc         1 DZL       0.018950
     39 H201         3.3700     5.6080     8.3360 hc         1 DZL       0.026950
     40 H202         3.4190     3.9460     8.9400 hc         1 DZL       0.026950
     41 H14          5.6490     5.7730     4.9380 hc         1 DZL       0.026700
     42 H151         6.9450     3.7360     5.4780 hc         1 DZL       0.018950
     43 H152         5.5220     3.3410     4.5040 hc         1 DZL       0.018950
     44 H191         6.8660     5.6460     7.0870 hc         1 DZL       0.022700
     45 H192         5.3870     6.6030     7.2520 hc         1 DZL       0.022700
     46 H171         5.5070     2.5940     8.7060 hc         1 DZL       0.026950
     47 H172         6.9360     3.2990     7.9380 hc         1 DZL       0.026950
     48 H21          5.4430     6.0250     9.5750 ho         1 DZL       0.391000
     49 H231         1.6850    -2.6260     5.8590 hc         1 DZL       0.024700
     50 H232         0.8710    -2.2040     4.3290 hc         1 DZL       0.024700
     51 H241         1.4790    -4.8260     5.0980 hc         1 DZL       0.023200
     52 H242         1.2830    -4.3100     3.3960 hc         1 DZL       0.023200
     53 H251         3.5440    -5.1260     3.3830 h1         1 DZL       0.008200
     54 H252         3.8590    -4.5150     5.0310 h1         1 DZL       0.008200
@<TRIPOS>BOND
     1     1     2 1   
     2     1    27 1   
     3     1    28 1   
     4     1    29 1   
     5     2     3 1   
     6     2    30 1   
     7     2    31 1   
     8     3     4 2   
     9     3     7 1   
    10     4     5 1   
    11     5     6 2   
    12     5    22 1   
    13     6     7 1   
    14     6     8 1   
    15     8     9 2   
    16     8    10 1   
    17    10    11 1   
    18    10    33 1   
    19    11    12 1   
    20    11    16 1   
    21    11    34 1   
    22    12    13 1   
    23    12    20 1   
    24    12    35 1   
    25    13    14 1   
    26    13    37 1   
    27    13    38 1   
    28    14    15 1   
    29    14    19 1   
    30    14    41 1   
    31    15    16 1   
    32    15    42 1   
    33    15    43 1   
    34    16    17 1   
    35    16    36 1   
    36    17    18 1   
    37    17    46 1   
    38    17    47 1   
    39    18    19 1   
    40    18    20 1   
    41    18    21 1   
    42    19    44 1   
    43    19    45 1   
    44    20    39 1   
    45    20    40 1   
    46    21    48 1   
    47    22    23 1   
    48    22    26 1   
    49    22    32 1   
    50    23    24 1   
    51    23    49 1   
    52    23    50 1   
    53    24    25 1   
    54    24    51 1   
    55    24    52 1   
    56    25    26 1   
    57    25    53 1   
    58    25    54 1   
@<TRIPOS>SUBSTRUCTURE
     1 DZL         1 TEMP              0 ****  ****    0 ROOT
