@<TRIPOS>MOLECULE
molecule
   54    58     1     0     0
SMALL
bcc


@<TRIPOS>ATOM
      1 C1           0.0000     0.0000     0.0000 c3         1 DZL      -0.090100
      2 C2           1.5300     0.0000     0.0000 c3         1 DZL      -0.108700
      3 C3           2.0310     0.0000     1.4210 cc         1 DZL       0.481700
      4 N4           2.2780    -1.0620     2.1180 nd         1 DZL      -0.669000
      5 C5           2.7100    -0.8920     3.3420 cd         1 DZL       0.458600
      6 C6           2.8400     0.4070     3.7110 cc         1 DZL      -0.225000
      7 S7           2.3630     1.4050     2.3390 ss         1 DZL      -0.219300
      8 C8           3.3010     0.8930     5.0150 c          1 DZL       0.715700
      9 O9           3.6090     0.1010     5.8860 o          1 DZL      -0.611100
     10 N10          3.3830     2.2180     5.2490 ns         1 DZL      -0.575900
     11 C11          3.8430     2.7050     6.5530 c3         1 DZL       0.128700
     12 C12          3.2850     4.1070     6.8000 c3         1 DZL      -0.077700
     13 C13          3.7730     5.0520     5.7010 c3         1 DZL      -0.072400
     14 C14          5.3030     5.1030     5.7150 c3         1 DZL      -0.065700
     15 C15          5.8620     3.7000     5.4670 c3         1 DZL      -0.072400
     16 C16          5.3720     2.7550     6.5670 c3         1 DZL      -0.077700
     17 C17          5.8530     3.2630     7.9270 c3         1 DZL      -0.074400
     18 C18          5.2940     4.6650     8.1750 c3         1 DZL       0.154800
     19 C19          5.7830     5.6100     7.0770 c3         1 DZL      -0.099400
     20 C20          3.7650     4.6150     8.1610 c3         1 DZL      -0.074400
     21 O21          5.7430     5.1400     9.4460 oh         1 DZL      -0.600800
     22 C22          3.0340    -2.0410     4.2620 c3         1 DZL       0.090800
     23 C23          1.7320    -2.6830     4.7780 c3         1 DZL      -0.101400
     24 C24          1.8290    -4.1580     4.3200 c3         1 DZL      -0.115400
     25 C25          3.3520    -4.3290     4.0920 c3         1 DZL       0.126400
     26 O26          3.7550    -3.0550     3.5430 os         1 DZL      -0.400600
     27 H11C        -0.3610     0.1410    -1.0120 hc         1 DZL       0.043033
     28 H12C        -0.3610     0.8060     0.6280 hc         1 DZL       0.043033
     29 H13C        -0.3610    -0.9470     0.3840 hc         1 DZL       0.043033
     30 H21C         1.8910    -0.8850    -0.5110 hc         1 DZL       0.067200
     31 H22C         1.8910     0.8850    -0.5110 hc         1 DZL       0.067200
     32 H22          3.6280    -1.6930     5.0990 h1         1 DZL       0.108700
     33 H10          3.0770     2.8690     4.5530 hn         1 DZL       0.317500
     34 H11          3.4970     2.0350     7.3310 h1         1 DZL       0.082700
     35 H12          2.2020     4.0700     6.7910 hc         1 DZL       0.066700
     36 H16          5.7680     1.7620     6.3920 hc         1 DZL       0.066700
     37 H131         3.3770     6.0450     5.8760 hc         1 DZL       0.043700
     38 H132         3.4330     4.6930     4.7370 hc         1 DZL       0.043700
     39 H201         3.3700     5.6080     8.3360 hc         1 DZL       0.055200
     40 H202         3.4190     3.9460     8.9400 hc         1 DZL       0.055200
     41 H14          5.6490     5.7730     4.9380 hc         1 DZL       0.052700
     42 H151         6.9450     3.7360     5.4780 hc         1 DZL       0.043700
     43 H152         5.5220     3.3410     4.5040 hc         1 DZL       0.043700
     44 H191         6.8660     5.6460     7.0870 hc         1 DZL       0.048200
     45 H192         5.3870     6.6030     7.2520 hc         1 DZL       0.048200
     46 H171         5.5070     2.5940     8.7060 hc         1 DZL       0.055200
     47 H172         6.9360     3.2990     7.9380 hc         1 DZL       0.055200
     48 H21          5.4430     6.0250     9.5750 ho         1 DZL       0.401000
     49 H231         1.6850    -2.6260     5.8590 hc         1 DZL       0.056700
     50 H232         0.8710    -2.2040     4.3290 hc         1 DZL       0.056700
     51 H241         1.4790    -4.8260     5.0980 hc         1 DZL       0.054700
     52 H242         1.2830    -4.3100     3.3960 hc         1 DZL       0.054700
     53 H251         3.5440    -5.1260     3.3830 h1         1 DZL       0.049700
     54 H252         3.8590    -4.5150     5.0310 h1         1 DZL       0.049700
@<TRIPOS>BOND
     1     1     2 1
     2     2     3 1
     3     3     4 2
     4     3     7 1
     5     4     5 1
     6     5     6 2
     7     5    22 1
     8     6     7 1
     9     6     8 1
    10     8     9 2
    11     8    10 1
    12    10    11 1
    13    11    12 1
    14    11    16 1
    15    12    13 1
    16    12    20 1
    17    13    14 1
    18    14    15 1
    19    14    19 1
    20    15    16 1
    21    16    17 1
    22    17    18 1
    23    18    19 1
    24    18    20 1
    25    18    21 1
    26    22    23 1
    27    22    26 1
    28    23    24 1
    29    24    25 1
    30    25    26 1
    31     1    27 1
    32     1    28 1
    33     1    29 1
    34     2    30 1
    35     2    31 1
    36    22    32 1
    37    10    33 1
    38    11    34 1
    39    12    35 1
    40    16    36 1
    41    13    37 1
    42    13    38 1
    43    20    39 1
    44    20    40 1
    45    14    41 1
    46    15    42 1
    47    15    43 1
    48    19    44 1
    49    19    45 1
    50    17    46 1
    51    17    47 1
    52    21    48 1
    53    23    49 1
    54    23    50 1
    55    24    51 1
    56    24    52 1
    57    25    53 1
    58    25    54 1
@<TRIPOS>SUBSTRUCTURE
     1 DZL         1 TEMP              0 ****  ****    0 ROOT
