@<TRIPOS>MOLECULE
DZN
   50    53     1     0     0
SMALL
bcc


@<TRIPOS>ATOM
      1 O6          1.0910    0.7140   -0.6190 oh        1 DZN     -0.592800
      2 C6          2.4040    0.3420   -0.2660 c3        1 DZN      0.141400
      3 C5          2.5910    0.3730    1.2540 c3        1 DZN      0.105100
      4 O5          1.7060   -0.6270    1.7690 os        1 DZN     -0.441600
      5 C4          4.0430    0.0520    1.6400 c3        1 DZN      0.123100
      6 O4          4.8420    1.1200    1.1650 oh        1 DZN     -0.592800
      7 C3          4.1600   -0.0630    3.1700 c3        1 DZN      0.109100
      8 O3          5.4880   -0.4730    3.4410 oh        1 DZN     -0.602800
      9 C2          3.1540   -1.1010    3.6880 c3        1 DZN      0.087100
     10 O2          3.2040   -1.0430    5.1010 oh        1 DZN     -0.598800
     11 C1          1.7430   -0.7290    3.1840 c3        1 DZN      0.306900
     12 O1          0.9290   -1.8660    3.4350 os        1 DZN     -0.327900
     13 C18        -0.4420   -1.6840    3.3820 ca        1 DZN      0.175100
     14 C19        -1.0700   -0.6180    2.7150 ca        1 DZN     -0.218000
     15 C20        -2.4550   -0.5430    2.7040 ca        1 DZN     -0.017000
     16 C21        -3.2360   -1.5190    3.3440 ca        1 DZN     -0.243600
     17 C22        -2.5810   -2.5780    3.9940 ca        1 DZN      0.163100
     18 C23        -1.1840   -2.6800    4.0310 ca        1 DZN     -0.188000
     19 O24        -3.2700   -3.5900    4.6440 os        1 DZN     -0.217200
     20 C25        -4.6400   -3.5010    4.6570 cc        1 DZN      0.076100
     21 C26        -5.3750   -2.5210    4.0760 cd        1 DZN     -0.193400
     22 C27        -4.7050   -1.4410    3.3290 c         1 DZN      0.599900
     23 O35        -5.3060   -0.5380    2.7290 o         1 DZN     -0.543100
     24 C28        -6.8300   -2.5360    4.1940 ca        1 DZN     -0.077800
     25 C29        -7.4310   -2.9370    5.3990 ca        1 DZN     -0.074000
     26 C30        -8.8130   -2.9800    5.5290 ca        1 DZN     -0.187500
     27 C31        -9.6130   -2.6100    4.4350 ca        1 DZN      0.131100
     28 O34       -10.9750   -2.6760    4.6200 oh        1 DZN     -0.497100
     29 C32        -9.0300   -2.1990    3.2290 ca        1 DZN     -0.187500
     30 C33        -7.6440   -2.1610    3.1160 ca        1 DZN     -0.074000
     31 H6          0.4960    0.0540   -0.2380 ho        1 DZN      0.410000
     32 H6C1        3.0740    1.1130   -0.7310 h1        1 DZN      0.067200
     33 H6C2        2.6460   -0.6790   -0.6620 h1        1 DZN      0.067200
     34 H5          2.2960    1.3780    1.6610 h1        1 DZN      0.070700
     35 H4          4.3710   -0.9140    1.1660 h1        1 DZN      0.066700
     36 HA          5.7400    0.9500    1.4820 ho        1 DZN      0.427000
     37 H3          3.9660    0.9340    3.6540 h1        1 DZN      0.066700
     38 HB          5.5510   -0.5940    4.3980 ho        1 DZN      0.428000
     39 H2          3.4280   -2.1300    3.3250 h1        1 DZN      0.081700
     40 HC          2.6130   -1.7340    5.4280 ho        1 DZN      0.424000
     41 H1          1.3440    0.2000    3.6740 h2        1 DZN      0.071700
     42 H19        -0.4680    0.1340    2.1830 ha        1 DZN      0.159000
     43 H20        -2.9700    0.2840    2.1850 ha        1 DZN      0.167000
     44 H23        -0.6910   -3.5180    4.5410 ha        1 DZN      0.169000
     45 H25        -5.0430   -4.3630    5.2180 h4        1 DZN      0.185000
     46 H29        -6.8010   -3.2120    6.2590 ha        1 DZN      0.143000
     47 H30        -9.2890   -3.2910    6.4700 ha        1 DZN      0.144000
     48 H34       -11.4010   -2.3740    3.8040 ho        1 DZN      0.421000
     49 H32        -9.6620   -1.9020    2.3800 ha        1 DZN      0.144000
     50 H33        -7.1810   -1.8190    2.1760 ha        1 DZN      0.143000
@<TRIPOS>BOND
     1    1    2 1   
     2    1   31 1   
     3    2    3 1   
     4    2   32 1   
     5    2   33 1   
     6    3    4 1   
     7    3    5 1   
     8    3   34 1   
     9    4   11 1   
    10    5    6 1   
    11    5    7 1   
    12    5   35 1   
    13    6   36 1   
    14    7    8 1   
    15    7    9 1   
    16    7   37 1   
    17    8   38 1   
    18    9   10 1   
    19    9   11 1   
    20    9   39 1   
    21   10   40 1   
    22   11   12 1   
    23   11   41 1   
    24   12   13 1   
    25   13   14 ar  
    26   13   18 ar  
    27   14   15 ar  
    28   14   42 1   
    29   15   16 ar  
    30   15   43 1   
    31   16   17 ar  
    32   16   22 1   
    33   17   18 ar  
    34   17   19 1   
    35   18   44 1   
    36   19   20 1   
    37   20   21 2   
    38   20   45 1   
    39   21   22 1   
    40   21   24 1   
    41   22   23 2   
    42   24   25 ar  
    43   24   30 ar  
    44   25   26 ar  
    45   25   46 1   
    46   26   27 ar  
    47   26   47 1   
    48   27   28 1   
    49   27   29 ar  
    50   28   48 1   
    51   29   30 ar  
    52   29   49 1   
    53   30   50 1   
@<TRIPOS>SUBSTRUCTURE
     1 DZN         1 TEMP              0 ****  ****    0 ROOT
