@<TRIPOS>MOLECULE
DZO
   38    41     1     0     0
SMALL
bcc


@<TRIPOS>ATOM
      1 C4           0.0000     0.0000     0.0000 cc         1 DZO       0.510500
      2 C3           3.1480     0.0010     3.2230 cc         1 DZO       0.499200
      3 C2           1.4000     0.0000     0.0000 cc         1 DZO      -0.306800
      4 C1           1.8130     0.0000     1.3380 cd         1 DZO       0.242500
      5 C10          6.7200     0.5290     3.3500 ca         1 DZO      -0.135000
      6 C12          7.8420     0.4120     2.5510 ca         1 DZO      -0.014600
      7 Cl1          9.3140     1.2180     2.9960 cl         1 DZO      -0.030400
      8 C17          7.7930    -0.3510     1.3960 ca         1 DZO      -0.115000
      9 C15          6.6230    -0.9940     1.0380 ca         1 DZO      -0.067000
     10 C16          5.4980    -0.8790     1.8320 ca         1 DZO      -0.102000
     11 C9           5.5440    -0.1160     2.9920 ca         1 DZO      -0.000400
     12 N4           4.4070     0.0010     3.7980 nu         1 DZO      -0.288300
     13 C5           2.0000     0.0030     4.0430 cc         1 DZO      -0.299300
     14 C7           0.7750     0.0020     3.4680 cd         1 DZO      -0.114300
     15 N1           3.0220     0.0010     1.9090 nd         1 DZO      -0.624000
     16 N2           0.6780     0.0010     2.1030 na         1 DZO       0.505200
     17 N3          -0.4230     0.0020     1.2400 nd         1 DZO      -0.746100
     18 C6           2.2790    -0.0010    -1.1920 ca         1 DZO       0.022200
     19 C8           2.0690    -0.9250    -2.2140 ca         1 DZO      -0.118000
     20 C13          3.3160     0.9270    -1.2970 ca         1 DZO      -0.092000
     21 C14          4.1340     0.9250    -2.4090 ca         1 DZO      -0.098000
     22 C18          3.9300     0.0040    -3.4210 ca         1 DZO      -0.122000
     23 C11          2.8960    -0.9200    -3.3280 ca         1 DZO       0.027600
     24 N5           2.6900    -1.8440    -4.3560 nv         1 DZO      -0.561200
     25 H4          -0.6300    -0.0000    -0.8810 h4         1 DZO       0.015800
     26 H10          6.7580     1.1250     4.2540 ha         1 DZO       0.116000
     27 H17          8.6730    -0.4420     0.7710 ha         1 DZO       0.115000
     28 H15          6.5880    -1.5890     0.1340 ha         1 DZO       0.110000
     29 H16          4.5820    -1.3840     1.5510 ha         1 DZO       0.142000
     30 HN4          4.5030     0.0530     4.7930 hn         1 DZO       0.287800
     31 H5           2.0960     0.1540     5.1110 ha         1 DZO       0.131000
     32 H7          -0.1180     0.0030     4.0810 h4         1 DZO       0.143000
     33 H8           1.2630    -1.6440    -2.1390 ha         1 DZO       0.110000
     34 H13          3.4780     1.6490    -0.5070 ha         1 DZO       0.112000
     35 H14          4.9390     1.6450    -2.4880 ha         1 DZO       0.100000
     36 H18          4.5750     0.0070    -4.2910 ha         1 DZO       0.105000
     37 HN5          3.1460    -2.7340    -4.3280 hn         1 DZO       0.270800
     38 HN5A         2.0780    -1.6190    -5.1150 hn         1 DZO       0.270800
@<TRIPOS>BOND
     1     1     3 1   
     2     1    17 2   
     3     1    25 1   
     4     2    12 1   
     5     2    13 1   
     6     2    15 2   
     7     3     4 2   
     8     3    18 1   
     9     4    15 1   
    10     4    16 1   
    11     5     6 ar  
    12     5    11 ar  
    13     5    26 1   
    14     6     7 1   
    15     6     8 ar  
    16     8     9 ar  
    17     8    27 1   
    18     9    10 ar  
    19     9    28 1   
    20    10    11 ar  
    21    10    29 1   
    22    11    12 1   
    23    12    30 1   
    24    13    14 2   
    25    13    31 1   
    26    14    16 1   
    27    14    32 1   
    28    16    17 1   
    29    18    19 ar  
    30    18    20 ar  
    31    19    23 ar  
    32    19    33 1   
    33    20    21 ar  
    34    20    34 1   
    35    21    22 ar  
    36    21    35 1   
    37    22    23 ar  
    38    22    36 1   
    39    23    24 1   
    40    24    37 1   
    41    24    38 1   
@<TRIPOS>SUBSTRUCTURE
     1 DZO         1 TEMP              0 ****  ****    0 ROOT
