@<TRIPOS>MOLECULE
DZP
   33    35     1     0     0
SMALL
bcc


@<TRIPOS>ATOM
      1 C1           0.0000     0.0000     0.0000 ca         1 DZP      -0.108500
      2 C2           1.3840     0.0000     0.0000 ca         1 DZP      -0.086000
      3 C3           2.0800     0.0000     1.1960 ca         1 DZP      -0.108500
      4 C4           1.3980     0.0050     2.3950 ca         1 DZP      -0.074500
      5 C5          -0.7350    -0.0030     3.6850 ce         1 DZP       0.496500
      6 C6          -3.1470    -0.0720     4.3930 ca         1 DZP      -0.051400
      7 C7          -4.4270     0.4920     4.3390 ca         1 DZP      -0.130000
      8 C8          -4.6650     1.6170     3.5810 ca         1 DZP      -0.062000
      9 C9          -3.6350     2.2040     2.8640 ca         1 DZP      -0.058600
     10 C11         -0.6930    -0.0020     1.1930 ca         1 DZP      -0.074500
     11 C12          0.0030    -0.0020     2.4010 ca         1 DZP      -0.151900
     12 C13         -2.1110     0.5190     3.6800 ca         1 DZP      -0.181900
     13 C14         -2.3700     1.6630     2.9100 ca         1 DZP      -0.057000
     14 N15         -0.1250    -0.4600     4.7220 n2         1 DZP      -0.511900
     15 C17         -0.7680    -0.5120     6.0340 c3         1 DZP       0.085800
     16 C18         -1.9430    -1.4500     5.9650 c          1 DZP       0.592500
     17 N2          -2.9880    -1.2030     5.1790 n          1 DZP       0.015000
     18 O1          -1.9360    -2.4560     6.6410 o          1 DZP      -0.655500
     19 Cl          -3.9380     3.6210     1.9080 cl         1 DZP      -0.011400
     20 H1          -0.5400    -0.0000    -0.9390 ha         1 DZP       0.105500
     21 H2           1.9240    -0.0020    -0.9390 ha         1 DZP       0.102000
     22 H3           3.1630     0.0030     1.1910 ha         1 DZP       0.105500
     23 H4           1.9450     0.0050     3.3300 ha         1 DZP       0.118000
     24 H7          -5.2380     0.0390     4.8970 ha         1 DZP       0.123000
     25 H8          -5.6600     2.0440     3.5440 ha         1 DZP       0.118000
     26 H11         -1.7760    -0.0040     1.1910 ha         1 DZP       0.118000
     27 H14         -1.5670     2.1250     2.3470 ha         1 DZP       0.134000
     28 H171        -1.1110     0.4780     6.3080 h1         1 DZP       0.042700
     29 H172        -0.0600    -0.8740     6.7700 h1         1 DZP       0.042700
     30 H201        -3.6170    -3.1990     5.2050 h1         1 DZP       0.023367
     31 H202        -4.7290    -2.0550     5.9690 h1         1 DZP       0.023367
     32 H203        -4.5990    -2.1190     4.2060 h1         1 DZP       0.023367
     33 C20         -4.0530    -2.2100     5.1370 c3         1 DZP       0.055300
@<TRIPOS>BOND
     1     1     2 ar  
     2     1    10 ar  
     3     1    20 1   
     4     2     3 ar  
     5     2    21 1   
     6     3     4 ar  
     7     3    22 1   
     8     4    11 ar  
     9     4    23 1   
    10     5    11 1   
    11     5    12 1   
    12     5    14 2   
    13     6     7 ar  
    14     6    12 ar  
    15     6    17 1   
    16     7     8 ar  
    17     7    24 1   
    18     8     9 ar  
    19     8    25 1   
    20     9    13 ar  
    21     9    19 1   
    22    10    11 ar  
    23    10    26 1   
    24    12    13 ar  
    25    13    27 1   
    26    14    15 1   
    27    15    16 1   
    28    15    28 1   
    29    15    29 1   
    30    16    17 1   
    31    16    18 2   
    32    17    33 1   
    33    30    33 1   
    34    31    33 1   
    35    32    33 1   
@<TRIPOS>SUBSTRUCTURE
     1 DZP         1 TEMP              0 ****  ****    0 ROOT
