@<TRIPOS>MOLECULE
DZS
   46    50     1     0     0
SMALL
bcc


@<TRIPOS>ATOM
      1 C2           0.0000     0.0000     0.0000 ca         1 DZS      -0.126000
      2 C3           1.3790     0.0000     0.0000 ca         1 DZS      -0.022000
      3 C4           2.0680     0.0000     1.2110 ca         1 DZS      -0.174600
      4 C5           1.3570    -0.0000     2.4220 ca         1 DZS      -0.132200
      5 C6          -0.0300     0.0010     2.4030 ca         1 DZS      -0.112000
      6 C7           3.4260    -0.0010     3.6310 cc         1 DZS       0.138400
      7 C8           3.5410    -0.0000     1.2560 c          1 DZS       0.630100
      8 C11          6.2100     2.2370     3.4740 ca         1 DZS      -0.045600
      9 C12          6.6780     3.5320     3.3350 ca         1 DZS      -0.108000
     10 C13          7.0640     3.9970     2.0910 ca         1 DZS      -0.089000
     11 C14          6.9820     3.1690     0.9870 ca         1 DZS      -0.117000
     12 C17          0.2820    -0.0000     5.4410 ca         1 DZS      -0.206500
     13 C18         -0.4110     1.1980     5.5770 ca         1 DZS      -0.034000
     14 C19         -1.7220     1.1900     6.0550 ca         1 DZS      -0.125600
     15 C20         -2.4620     2.4570     6.2020 c          1 DZS       0.972200
     16 C21         -2.3340    -0.0220     6.3960 ca         1 DZS      -0.022000
     17 C22         -1.6460    -1.2070     6.2600 ca         1 DZS      -0.209000
     18 C23         -0.3440    -1.2100     5.7800 ca         1 DZS       0.126100
     19 C1          -0.7000     0.0060     1.1960 ca         1 DZS      -0.047000
     20 N1           2.0610    -0.0010     3.6190 na         1 DZS       0.281200
     21 N2           4.1560    -0.0010     2.4570 n          1 DZS       0.010700
     22 O1           4.1910    -0.0000     0.2280 o          1 DZS      -0.687500
     23 C9           5.6200    -0.0010     2.5190 c3         1 DZS       0.082300
     24 C10          6.1290     1.4090     2.3680 ca         1 DZS      -0.125300
     25 C15          6.5150     1.8760     1.1260 ca         1 DZS      -0.067000
     26 N3           3.7990    -0.0020     4.8930 nd         1 DZS      -0.372000
     27 N4           2.7670    -0.0020     5.6600 nd         1 DZS      -0.298000
     28 C16          1.6700    -0.0010     4.9350 cc         1 DZS       0.291000
     29 O2          -3.7280     2.4480     6.6640 o          1 DZS      -0.877800
     30 O3          -1.9310     3.5090     5.9070 o          1 DZS      -0.877800
     31 O4           0.3280    -2.3810     5.6490 oh         1 DZS      -0.506100
     32 H1          -0.5390     0.0040    -0.9400 ha         1 DZS       0.104000
     33 H2           1.9240    -0.0050    -0.9360 ha         1 DZS       0.123000
     34 H3          -0.5860     0.0050     3.3330 ha         1 DZS       0.160000
     35 H4           6.7420     4.1810     4.2000 ha         1 DZS       0.113000
     36 H5           7.4300     5.0110     1.9820 ha         1 DZS       0.099000
     37 H6           7.2840     3.5340     0.0130 ha         1 DZS       0.100000
     38 H7           0.0660     2.1350     5.3170 ha         1 DZS       0.132000
     39 H8          -3.3510    -0.0270     6.7690 ha         1 DZS       0.133000
     40 H9          -2.1260    -2.1420     6.5230 ha         1 DZS       0.099000
     41 H10         -1.7830     0.0060     1.1840 ha         1 DZS       0.112000
     42 H11          5.9410    -0.4000     3.4730 h1         1 DZS       0.051200
     43 H12          6.0150    -0.6150     1.7190 h1         1 DZS       0.051200
     44 H13          6.4510     1.2280     0.2600 ha         1 DZS       0.125000
     45 H15          0.3350    -2.8340     6.4760 ho         1 DZS       0.399000
     46 Cl1          5.7320     1.6500     5.0350 cl         1 DZS       0.049600
@<TRIPOS>BOND
     1     1     2 ar  
     2     1    19 ar  
     3     1    32 1   
     4     2     3 ar  
     5     2    33 1   
     6     3     4 ar  
     7     3     7 1   
     8     4     5 ar  
     9     4    20 1   
    10     5    19 ar  
    11     5    34 1   
    12     6    20 1   
    13     6    21 1   
    14     6    26 2   
    15     7    21 1   
    16     7    22 2   
    17     8     9 ar  
    18     8    24 ar  
    19     8    46 1   
    20     9    10 ar  
    21     9    35 1   
    22    10    11 ar  
    23    10    36 1   
    24    11    25 ar  
    25    11    37 1   
    26    12    13 ar  
    27    12    18 ar  
    28    12    28 1   
    29    13    14 ar  
    30    13    38 1   
    31    14    15 1   
    32    14    16 ar  
    33    15    29 1   
    34    15    30 1   
    35    16    17 ar  
    36    16    39 1   
    37    17    18 ar  
    38    17    40 1   
    39    18    31 1   
    40    19    41 1   
    41    20    28 1   
    42    21    23 1   
    43    23    24 1   
    44    23    42 1   
    45    23    43 1   
    46    24    25 ar  
    47    25    44 1   
    48    26    27 1   
    49    27    28 2   
    50    31    45 1   
@<TRIPOS>SUBSTRUCTURE
     1 DZS         1 TEMP              0 ****  ****    0 ROOT
