@<TRIPOS>MOLECULE
molecule
   46    50     1     0     0
SMALL
bcc


@<TRIPOS>ATOM
      1 C2           0.0000     0.0000     0.0000 ca         1 DZS      -0.162000
      2 C3           1.3790     0.0000     0.0000 ca         1 DZS      -0.053000
      3 C4           2.0680     0.0000     1.2110 ca         1 DZS      -0.181600
      4 C5           1.3570    -0.0000     2.4220 ca         1 DZS       0.053800
      5 C6          -0.0300     0.0010     2.4030 ca         1 DZS      -0.138000
      6 C7           3.4260    -0.0010     3.6310 cc         1 DZS       0.475400
      7 C8           3.5410    -0.0000     1.2560 c          1 DZS       0.727100
      8 C11          6.2100     2.2370     3.4740 ca         1 DZS       0.035400
      9 C12          6.6780     3.5320     3.3350 ca         1 DZS      -0.132000
     10 C13          7.0640     3.9970     2.0910 ca         1 DZS      -0.116000
     11 C14          6.9820     3.1690     0.9870 ca         1 DZS      -0.143000
     12 C17          0.2820    -0.0000     5.4410 ca         1 DZS      -0.194500
     13 C18         -0.4110     1.1980     5.5770 ca         1 DZS      -0.060000
     14 C19         -1.7220     1.1900     6.0550 ca         1 DZS      -0.121600
     15 C20         -2.4620     2.4570     6.2020 c          1 DZS       0.881200
     16 C21         -2.3340    -0.0220     6.3960 ca         1 DZS      -0.056000
     17 C22         -1.6460    -1.2070     6.2600 ca         1 DZS      -0.220000
     18 C23         -0.3440    -1.2100     5.7800 ca         1 DZS       0.114100
     19 C1          -0.7000     0.0060     1.1960 ca         1 DZS      -0.075000
     20 N1           2.0610    -0.0010     3.6190 na         1 DZS      -0.248800
     21 N2           4.1560    -0.0010     2.4570 n          1 DZS      -0.413300
     22 O1           4.1910    -0.0000     0.2280 o          1 DZS      -0.643500
     23 C9           5.6200    -0.0010     2.5190 c3         1 DZS       0.160300
     24 C10          6.1290     1.4090     2.3680 ca         1 DZS      -0.116300
     25 C15          6.5150     1.8760     1.1260 ca         1 DZS      -0.092000
     26 N3           3.7990    -0.0020     4.8930 nc         1 DZS      -0.382000
     27 N4           2.7670    -0.0020     5.6600 nc         1 DZS      -0.326000
     28 C16          1.6700    -0.0010     4.9350 cd         1 DZS       0.475000
     29 O2          -3.7280     2.4480     6.6640 o          1 DZS      -0.829300
     30 O3          -1.9310     3.5090     5.9070 o          1 DZS      -0.829300
     31 O4           0.3280    -2.3810     5.6490 oh         1 DZS      -0.523100
     32 H1          -0.5390     0.0040    -0.9400 ha         1 DZS       0.132000
     33 H2           1.9240    -0.0050    -0.9360 ha         1 DZS       0.152000
     34 H3          -0.5860     0.0050     3.3330 ha         1 DZS       0.181000
     35 H4           6.7420     4.1810     4.2000 ha         1 DZS       0.143000
     36 H5           7.4300     5.0110     1.9820 ha         1 DZS       0.128000
     37 H6           7.2840     3.5340     0.0130 ha         1 DZS       0.128000
     38 H7           0.0660     2.1350     5.3170 ha         1 DZS       0.165000
     39 H8          -3.3510    -0.0270     6.7690 ha         1 DZS       0.163000
     40 H9          -2.1260    -2.1420     6.5230 ha         1 DZS       0.120000
     41 H10         -1.7830     0.0060     1.1840 ha         1 DZS       0.144000
     42 H11          5.9410    -0.4000     3.4730 h1         1 DZS       0.081700
     43 H12          6.0150    -0.6150     1.7190 h1         1 DZS       0.081700
     44 H13          6.4510     1.2280     0.2600 ha         1 DZS       0.151000
     45 H15          0.3350    -2.8340     6.4760 ho         1 DZS       0.415000
     46 Cl1          5.7320     1.6500     5.0350 cl         1 DZS      -0.052400
@<TRIPOS>BOND
     1    17    16 ar
     2    17    18 ar
     3    31    18 1
     4    16    14 ar
     5    18    12 ar
     6    30    15 1
     7    14    15 1
     8    14    13 ar
     9    12    13 ar
    10    12    28 1
    11    15    29 1
    12    27    28 2
    13    27    26 1
    14    28    20 1
    15    26     6 2
    16    20     4 1
    17    20     6 1
    18     5    19 ar
    19     5     4 ar
    20    19     1 ar
    21     4     3 ar
    22     6    21 1
    23     1     2 ar
    24     3     2 ar
    25     3     7 1
    26    21    23 1
    27    21     7 1
    28    23    24 1
    29     7    22 2
    30    46     8 1
    31    24     8 ar
    32    24    25 ar
    33     8     9 ar
    34    25    11 ar
    35     9    10 ar
    36    11    10 ar
    37     1    32 1
    38     2    33 1
    39     5    34 1
    40     9    35 1
    41    10    36 1
    42    11    37 1
    43    13    38 1
    44    16    39 1
    45    17    40 1
    46    19    41 1
    47    23    42 1
    48    23    43 1
    49    25    44 1
    50    31    45 1
@<TRIPOS>SUBSTRUCTURE
     1 DZS         1 TEMP              0 ****  ****    0 ROOT
