@<TRIPOS>MOLECULE
molecule
   79    80     1     0     0
SMALL
bcc


@<TRIPOS>ATOM
      1 C2           0.0000     0.0000     0.0000 c3         1 DZT      -0.092100
      2 C3           1.5300     0.0000     0.0000 c3         1 DZT      -0.084400
      3 C4           2.0400     0.0000     1.4420 c3         1 DZT      -0.081400
      4 C5           3.5700    -0.0000     1.4420 c3         1 DZT      -0.084400
      5 C6           4.0800     0.0000     2.8840 c3         1 DZT      -0.075400
      6 C7           5.6100     0.0000     2.8840 c3         1 DZT      -0.103200
      7 C8           6.1130    -0.0000     4.3050 ce         1 DZT       0.052600
      8 O9          11.7520     3.1930    12.5170 oh         1 DZT      -0.602800
      9 C10         12.7350     2.7340    11.5860 c3         1 DZT       0.146800
     10 C11         14.1170     3.2260    12.0190 c3         1 DZT      -0.121100
     11 C12         12.7260     1.2040    11.5470 c3         1 DZT      -0.121100
     12 C13         12.4120     3.2810    10.1940 c3         1 DZT      -0.064400
     13 C14         11.0310     2.7890     9.7600 c3         1 DZT      -0.079400
     14 C15         10.7080     3.3360     8.3680 c3         1 DZT      -0.085400
     15 C16          9.3250     2.8450     7.9350 c3         1 DZT      -0.076400
     16 C18          7.6410     2.9070     6.1150 ca         1 DZT      -0.084300
     17 C19          7.5180     1.7170     5.4300 ca         1 DZT      -0.098000
     18 C20          6.5170     3.6560     6.4170 ca         1 DZT      -0.125000
     19 C21          5.2610     3.2200     6.0300 ca         1 DZT      -0.127000
     20 C22          5.1220     2.0340     5.3390 ca         1 DZT      -0.118000
     21 C23          6.2530     1.2690     5.0350 ca         1 DZT      -0.038800
     22 C24          6.4350    -1.1650     4.9070 cf         1 DZT      -0.437000
     23 C25          6.3000    -2.3850     4.2040 cf         1 DZT      -0.195000
     24 C26          6.6220    -3.5530     4.8080 ce         1 DZT       0.008800
     25 C27          7.1170    -3.5950     6.1970 ce         1 DZT      -0.122200
     26 C28          8.0210    -2.7190     6.6450 c2         1 DZT      -0.132000
     27 C29          6.5500    -4.6770     7.0920 c3         1 DZT       0.195300
     28 O30          5.2020    -4.3560     7.4430 oh         1 DZT      -0.594800
     29 C31          6.5830    -6.0040     6.3260 c3         1 DZT      -0.099400
     30 C32          5.7900    -5.8700     5.0260 c3         1 DZT       0.155100
     31 O33          5.7020    -7.1460     4.3890 oh         1 DZT      -0.610800
     32 C34          6.4860    -4.8820     4.0910 c3         1 DZT      -0.063200
     33 H1          -0.3610    -0.8840     0.5120 hc         1 DZT       0.033033
     34 H2          -0.3610     0.8850     0.5100 hc         1 DZT       0.033033
     35 H3          -0.3610    -0.0010    -1.0210 hc         1 DZT       0.033033
     36 H4           1.8910    -0.8840    -0.5110 hc         1 DZT       0.039200
     37 H5           1.8910     0.8840    -0.5110 hc         1 DZT       0.039200
     38 H6           1.6790    -0.8840     1.9520 hc         1 DZT       0.042700
     39 H7           1.6790     0.8840     1.9520 hc         1 DZT       0.042700
     40 H8           3.9310     0.8840     0.9300 hc         1 DZT       0.040200
     41 H9           3.9310    -0.8850     0.9310 hc         1 DZT       0.040200
     42 H10          3.7190     0.8850     3.3940 hc         1 DZT       0.051200
     43 H11          3.7190    -0.8840     3.3950 hc         1 DZT       0.051200
     44 H12          5.9710    -0.8840     2.3730 hc         1 DZT       0.050200
     45 H13          5.9710     0.8850     2.3730 hc         1 DZT       0.050200
     46 H14         12.0650     3.0570    13.3960 ho         1 DZT       0.401000
     47 H15         14.3490     2.8330    13.0020 hc         1 DZT       0.041867
     48 H16         14.8610     2.8840    11.3090 hc         1 DZT       0.041867
     49 H17         14.1220     4.3080    12.0530 hc         1 DZT       0.041867
     50 H18         13.1060     0.8650    10.5920 hc         1 DZT       0.041867
     51 H19         11.7120     0.8460    11.6810 hc         1 DZT       0.041867
     52 H20         13.3520     0.8190    12.3430 hc         1 DZT       0.041867
     53 H21         12.4180     4.3640    10.2210 hc         1 DZT       0.048200
     54 H22         13.1570     2.9330     9.4880 hc         1 DZT       0.048200
     55 H23         11.0250     1.7060     9.7330 hc         1 DZT       0.051700
     56 H24         10.2860     3.1370    10.4660 hc         1 DZT       0.051700
     57 H25         11.4520     2.9890     7.6610 hc         1 DZT       0.038200
     58 H26         10.7140     4.4190     8.3950 hc         1 DZT       0.038200
     59 H27          9.3190     1.7620     7.9080 hc         1 DZT       0.048700
     60 H28          8.5810     3.1930     8.6410 hc         1 DZT       0.048700
     61 H29          9.0090     4.4740     6.5690 hc         1 DZT       0.045700
     62 H30          9.7470     3.0440     5.8370 hc         1 DZT       0.045700
     63 H31          8.4040     1.1700     5.1320 ha         1 DZT       0.130000
     64 H32          6.6200     4.5880     6.9590 ha         1 DZT       0.129000
     65 H33          4.3860     3.8120     6.2680 ha         1 DZT       0.129000
     66 H34          4.1390     1.6940     5.0370 ha         1 DZT       0.134000
     67 H35          7.1370    -1.5240     4.1640 ha         1 DZT       0.325000
     68 H36          5.9390    -2.3840     3.1830 ha         1 DZT       0.106000
     69 H37          8.4090    -1.9550     5.9820 ha         1 DZT       0.121500
     70 H38          8.3670    -2.7740     7.6700 ha         1 DZT       0.121500
     71 H39          7.1540    -4.7610     7.9870 h1         1 DZT       0.038700
     72 H40          5.1200    -4.3290     8.3820 ho         1 DZT       0.402000
     73 H41          7.6110    -6.2590     6.0950 hc         1 DZT       0.057200
     74 H42          6.1420    -6.7820     6.9370 hc         1 DZT       0.057200
     75 H43          4.7950    -5.5070     5.2510 h1         1 DZT       0.057700
     76 H44          4.7960    -7.3580     4.2360 ho         1 DZT       0.403000
     77 H45          7.4680    -5.2570     3.8330 hc         1 DZT       0.060700
     78 H46          5.8920    -4.7510     3.1940 hc         1 DZT       0.060700
     79 C17          9.0030     3.3910     6.5430 c3         1 DZT      -0.035100
@<TRIPOS>BOND
     1    11     9 1
     2    10     9 1
     3     9     8 1
     4     9    12 1
     5     1     2 1
     6    12    13 1
     7     2     3 1
     8     3     4 1
     9    13    14 1
    10     4     5 1
    11    15    14 1
    12    15    79 1
    13    26    25 2
    14     5     6 1
    15    25    24 1
    16    25    27 1
    17    32    24 1
    18    32    30 1
    19    79    16 1
    20    29    30 1
    21    29    27 1
    22    24    23 2
    23    28    27 1
    24    23    22 1
    25    17    16 ar
    26    17    21 ar
    27    30    31 1
    28    22     7 2
    29    16    18 ar
    30     6     7 1
    31     7    21 1
    32    21    20 ar
    33    18    19 ar
    34    20    19 ar
    35     1    33 1
    36     1    34 1
    37     1    35 1
    38     2    36 1
    39     2    37 1
    40     3    38 1
    41     3    39 1
    42     4    40 1
    43     4    41 1
    44     5    42 1
    45     5    43 1
    46     6    44 1
    47     6    45 1
    48     8    46 1
    49    10    47 1
    50    10    48 1
    51    10    49 1
    52    11    50 1
    53    11    51 1
    54    11    52 1
    55    12    53 1
    56    12    54 1
    57    13    55 1
    58    13    56 1
    59    14    57 1
    60    14    58 1
    61    15    59 1
    62    15    60 1
    63    79    61 1
    64    79    62 1
    65    17    63 1
    66    18    64 1
    67    19    65 1
    68    20    66 1
    69    22    67 1
    70    23    68 1
    71    26    69 1
    72    26    70 1
    73    27    71 1
    74    28    72 1
    75    29    73 1
    76    29    74 1
    77    30    75 1
    78    31    76 1
    79    32    77 1
    80    32    78 1
@<TRIPOS>SUBSTRUCTURE
     1 DZT         1 TEMP              0 ****  ****    0 ROOT
