@<TRIPOS>MOLECULE
molecule
   48    52     1     0     0
SMALL
bcc


@<TRIPOS>ATOM
      1 C2           0.0000     0.0000     0.0000 c3         1 DZV      -0.189700
      2 C3           1.5070     0.0000     0.0000 ca         1 DZV      -0.080300
      3 C4           2.1990     0.0000     1.1980 ca         1 DZV       0.050400
      4 C5           3.5820     0.0000     1.1980 ca         1 DZV      -0.123000
      5 C6           4.2720    -0.0010     0.0010 ca         1 DZV      -0.116000
      6 C7           3.5810    -0.0000    -1.1960 ca         1 DZV      -0.120000
      7 C8           2.1990    -0.0060    -1.1970 ca         1 DZV      -0.076000
      8 C11         -1.5290     0.5150    -3.9780 ca         1 DZV       0.034800
      9 C12         -1.8840     0.3980    -5.3130 ca         1 DZV      -0.146000
     10 C13         -3.0580    -0.2430    -5.6580 ca         1 DZV      -0.084000
     11 C14         -3.8820    -0.7720    -4.6650 ca         1 DZV      -0.140000
     12 C17          1.4580     2.3030    -5.5460 ca         1 DZV      -0.143500
     13 C18          1.2810     3.6080    -5.9750 ca         1 DZV       0.251100
     14 C19          2.0090     4.0890    -7.0510 ca         1 DZV      -0.027900
     15 C20          3.8970     5.1800    -6.1870 c3         1 DZV       0.116700
     16 C21          2.9140     3.2650    -7.6990 ca         1 DZV      -0.092000
     17 C22          3.0920     1.9590    -7.2700 ca         1 DZV      -0.183000
     18 C23          2.3640     1.4780    -6.1940 ca         1 DZV      -0.039000
     19 N1          -0.2990     1.1880    -3.6230 na         1 DZV      -0.215800
     20 C1           0.0600     1.3070    -2.2910 cc         1 DZV       0.407400
     21 N2          -0.8030     0.7530    -1.2390 n          1 DZV      -0.346300
     22 Cl1          1.3110    -0.1440     2.7410 cl         1 DZV      -0.133400
     23 C9          -1.9680     0.1150    -1.5790 c          1 DZV       0.730100
     24 C10         -2.3480    -0.0100    -2.9970 ca         1 DZV      -0.147600
     25 C15         -3.5230    -0.6530    -3.3280 ca         1 DZV      -0.049000
     26 O1          -2.4220    -0.7110    -0.8620 o          1 DZV      -0.520500
     27 N3           1.2150     1.9560    -2.2380 nc         1 DZV      -0.346000
     28 N4           1.5950     2.2530    -3.5270 nc         1 DZV      -0.355000
     29 C16          0.6540     1.7740    -4.3590 cd         1 DZV       0.405000
     30 O2           2.5330     4.9080    -6.0440 os         1 DZV      -0.322900
     31 O3           0.3240     4.4240    -5.3580 oh         1 DZV      -0.493100
     32 H1          -0.3920     0.1960     0.9900 h1         1 DZV       0.180200
     33 H2          -0.3920     0.7000    -0.7280 h1         1 DZV       0.180200
     34 H3           4.1230     0.0000     2.1370 ha         1 DZV       0.143000
     35 H4           5.3560    -0.0010     0.0010 ha         1 DZV       0.134000
     36 H5           4.1230    -0.0010    -2.1340 ha         1 DZV       0.134000
     37 H6           1.6630    -0.1210    -2.1310 ha         1 DZV       0.134000
     38 H7          -1.3010     0.9010    -6.0750 ha         1 DZV       0.151000
     39 H8          -3.3380    -0.3360    -6.7000 ha         1 DZV       0.145000
     40 H9          -4.8020    -1.2750    -4.9370 ha         1 DZV       0.148000
     41 H10          4.4670     4.2830    -5.9790 h1         1 DZV       0.036367
     42 H11          4.1840     5.9610    -5.4930 h1         1 DZV       0.036367
     43 H12          4.0950     5.5080    -7.2000 h1         1 DZV       0.036367
     44 H13          3.4830     3.6410    -8.5400 ha         1 DZV       0.147000
     45 H14          3.8000     1.3150    -7.7770 ha         1 DZV       0.145000
     46 H15          2.5030     0.4580    -5.8590 ha         1 DZV       0.146000
     47 H16         -4.1640    -1.0640    -2.5570 ha         1 DZV       0.169000
     48 H17         -0.3380     4.6620    -5.9860 ho         1 DZV       0.430000
@<TRIPOS>BOND
     1    15    30 1
     2    30    14 1
     3    31    13 1
     4    14    13 ar
     5    14    16 ar
     6    13    12 ar
     7    16    17 ar
     8    12    29 1
     9    12    18 ar
    10    17    18 ar
    11    28    29 2
    12    28    27 1
    13    29    19 1
    14    19     8 1
    15    19    20 1
    16    27    20 2
    17     9     8 ar
    18     9    10 ar
    19     8    24 ar
    20    20    21 1
    21    10    11 ar
    22    24    23 1
    23    24    25 ar
    24    21     1 1
    25    21    23 1
    26    11    25 ar
    27     1     2 1
    28    23    26 2
    29    22     3 1
    30     2     3 ar
    31     2     7 ar
    32     3     4 ar
    33     7     6 ar
    34     4     5 ar
    35     6     5 ar
    36     1    32 1
    37     1    33 1
    38     4    34 1
    39     5    35 1
    40     6    36 1
    41     7    37 1
    42     9    38 1
    43    10    39 1
    44    11    40 1
    45    15    41 1
    46    15    42 1
    47    15    43 1
    48    16    44 1
    49    17    45 1
    50    18    46 1
    51    25    47 1
    52    31    48 1
@<TRIPOS>SUBSTRUCTURE
     1 DZV         1 TEMP              0 ****  ****    0 ROOT
