@<TRIPOS>MOLECULE
molecule
   82    83     1     0     0
SMALL
bcc


@<TRIPOS>ATOM
      1 C1           0.0000     0.0000     0.0000 c3         1 DZW      -0.092100
      2 C2           1.5310     0.0000     0.0000 c3         1 DZW      -0.084400
      3 C3           2.0410     0.0000     1.4420 c3         1 DZW      -0.081400
      4 C4           3.5700     0.0000     1.4410 c3         1 DZW      -0.081400
      5 C5           4.0810    -0.0000     2.8840 c3         1 DZW      -0.084400
      6 C6           5.6110     0.0000     2.8830 c3         1 DZW      -0.074400
      7 C7           6.1210     0.0000     4.3260 c3         1 DZW      -0.107200
      8 C8           7.6280     0.0010     4.3250 ce         1 DZW       0.060600
      9 O9          16.6300    -1.5790     8.3350 oh         1 DZW      -0.603800
     10 C10         16.6350    -3.0010     8.1970 c3         1 DZW       0.146800
     11 C11         17.1870    -3.3780     6.8210 c3         1 DZW      -0.120100
     12 C12         17.5160    -3.6160     9.2860 c3         1 DZW      -0.120100
     13 C13         15.2060    -3.5320     8.3370 c3         1 DZW      -0.065400
     14 C14         14.3550    -3.0160     7.1750 c3         1 DZW      -0.080400
     15 C15         12.9270    -3.5460     7.3150 c3         1 DZW      -0.084400
     16 C16         12.0760    -3.0310     6.1530 c3         1 DZW      -0.077400
     17 C18          9.8080    -3.0530     5.1490 ca         1 DZW      -0.082300
     18 C19          9.1350    -1.8570     5.2680 ca         1 DZW      -0.103000
     19 C20          9.7200    -3.7870     3.9780 ca         1 DZW      -0.128000
     20 C21          8.9530    -3.3290     2.9220 ca         1 DZW      -0.126000
     21 C22          8.2690    -2.1360     3.0280 ca         1 DZW      -0.119000
     22 C23          8.3570    -1.3860     4.2050 ca         1 DZW      -0.038800
     23 C24          8.3030     1.1660     4.4270 cf         1 DZW      -0.441000
     24 C25          7.5960     2.3870     4.5340 cf         1 DZW      -0.193000
     25 C26          8.2720     3.5540     4.6360 ce         1 DZW       0.009800
     26 C27          9.7480     3.5960     4.6390 ce         1 DZW      -0.125200
     27 C28         10.4710     2.7210     5.3420 c2         1 DZW      -0.130000
     28 C29         10.4020     4.6780     3.8050 c3         1 DZW       0.195300
     29 O30         10.2830     4.3570     2.4190 oh         1 DZW      -0.595800
     30 C31          9.6900     6.0050     4.0920 c3         1 DZW      -0.102400
     31 C32          8.2000     5.8710     3.7780 c3         1 DZW       0.155100
     32 O33          7.5700     7.1470     3.9070 oh         1 DZW      -0.611800
     33 C34          7.5510     4.8830     4.7460 c3         1 DZW      -0.059200
     34 H1          -0.3610     0.8870     0.5060 hc         1 DZW       0.032700
     35 H2          -0.3610    -0.0060    -1.0210 hc         1 DZW       0.032700
     36 H3          -0.3610    -0.8820     0.5160 hc         1 DZW       0.032700
     37 H4           1.8920     0.8840    -0.5110 hc         1 DZW       0.040700
     38 H5           1.8920    -0.8840    -0.5110 hc         1 DZW       0.040700
     39 H6           1.6800    -0.8850     1.9530 hc         1 DZW       0.040700
     40 H7           1.6790     0.8840     1.9530 hc         1 DZW       0.040700
     41 H8           3.9310     0.8850     0.9310 hc         1 DZW       0.042700
     42 H9           3.9310    -0.8840     0.9300 hc         1 DZW       0.042700
     43 H10          3.7200     0.8840     3.3950 hc         1 DZW       0.040200
     44 H11          3.7210    -0.8850     3.3940 hc         1 DZW       0.040200
     45 H12          5.9720    -0.8840     2.3730 hc         1 DZW       0.051200
     46 H13          5.9720     0.8850     2.3730 hc         1 DZW       0.051200
     47 H14          5.7600    -0.8840     4.8370 hc         1 DZW       0.050700
     48 H15          5.7590     0.8850     4.8370 hc         1 DZW       0.050700
     49 H16         17.5060    -1.2770     8.5130 ho         1 DZW       0.401000
     50 H17         16.8650    -4.3810     6.5650 hc         1 DZW       0.041533
     51 H18         16.8170    -2.6800     6.0800 hc         1 DZW       0.041533
     52 H19         18.2690    -3.3410     6.8430 hc         1 DZW       0.041533
     53 H20         17.5010    -4.6950     9.1960 hc         1 DZW       0.041533
     54 H21         18.5330    -3.2580     9.1730 hc         1 DZW       0.041533
     55 H22         17.1390    -3.3290    10.2600 hc         1 DZW       0.041533
     56 H23         15.2200    -4.6150     8.3210 hc         1 DZW       0.048700
     57 H24         14.7840    -3.1900     9.2740 hc         1 DZW       0.048700
     58 H25         14.3410    -1.9330     7.1900 hc         1 DZW       0.051200
     59 H26         14.7770    -3.3590     6.2380 hc         1 DZW       0.051200
     60 H27         12.5050    -3.2040     8.2520 hc         1 DZW       0.038200
     61 H28         12.9410    -4.6300     7.2990 hc         1 DZW       0.038200
     62 H29         12.4980    -3.3730     5.2160 hc         1 DZW       0.048700
     63 H30         12.0610    -1.9480     6.1690 hc         1 DZW       0.048700
     64 H31         10.6620    -4.6450     6.2770 hc         1 DZW       0.045700
     65 H32         10.2250    -3.2200     7.2300 hc         1 DZW       0.045700
     66 H33          9.1450    -1.3210     6.2100 ha         1 DZW       0.132000
     67 H34         10.2550    -4.7250     3.8880 ha         1 DZW       0.128000
     68 H35          8.8870    -3.9090     2.0100 ha         1 DZW       0.129000
     69 H36          7.6680    -1.7790     2.2000 ha         1 DZW       0.134000
     70 H37          7.8380     1.5250     5.3370 ha         1 DZW       0.326000
     71 H38          6.5130     2.3860     4.5340 ha         1 DZW       0.106000
     72 H39         11.5530     2.7760     5.3250 ha         1 DZW       0.122500
     73 H40          9.9770     1.9570     5.9290 ha         1 DZW       0.122500
     74 H41         11.4480     4.7620     4.0760 h1         1 DZW       0.038700
     75 H42         11.1420     4.3030     2.0330 ho         1 DZW       0.402000
     76 H43          9.8150     6.2610     5.1380 hc         1 DZW       0.056700
     77 H44         10.1190     6.7840     3.4720 hc         1 DZW       0.056700
     78 H45          8.0800     5.5080     2.7650 h1         1 DZW       0.056700
     79 H46          7.2260     7.4140     3.0710 ho         1 DZW       0.403000
     80 H47          7.6360     5.2590     5.7590 hc         1 DZW       0.061200
     81 H48          6.5080     4.7520     4.4860 hc         1 DZW       0.061200
     82 C17         10.6470    -3.5620     6.2930 c3         1 DZW      -0.035100
@<TRIPOS>BOND
     1    12    10 1
     2     1     2 1
     3    10    11 1
     4    10     9 1
     5    10    13 1
     6     2     3 1
     7    13    14 1
     8     3     4 1
     9    14    15 1
    10     4     5 1
    11    15    16 1
    12     5     6 1
    13    16    82 1
    14    27    26 2
    15     6     7 1
    16    26    25 1
    17    26    28 1
    18    33    25 1
    19    33    31 1
    20    29    28 1
    21    82    17 1
    22    30    28 1
    23    30    31 1
    24    25    24 2
    25    31    32 1
    26    18    17 ar
    27    18    22 ar
    28    24    23 1
    29     7     8 1
    30    17    19 ar
    31    23     8 2
    32     8    22 1
    33    22    21 ar
    34    19    20 ar
    35    21    20 ar
    36     1    34 1
    37     1    35 1
    38     1    36 1
    39     2    37 1
    40     2    38 1
    41     3    39 1
    42     3    40 1
    43     4    41 1
    44     4    42 1
    45     5    43 1
    46     5    44 1
    47     6    45 1
    48     6    46 1
    49     7    47 1
    50     7    48 1
    51     9    49 1
    52    11    50 1
    53    11    51 1
    54    11    52 1
    55    12    53 1
    56    12    54 1
    57    12    55 1
    58    13    56 1
    59    13    57 1
    60    14    58 1
    61    14    59 1
    62    15    60 1
    63    15    61 1
    64    16    62 1
    65    16    63 1
    66    82    64 1
    67    82    65 1
    68    18    66 1
    69    19    67 1
    70    20    68 1
    71    21    69 1
    72    23    70 1
    73    24    71 1
    74    27    72 1
    75    27    73 1
    76    28    74 1
    77    29    75 1
    78    30    76 1
    79    30    77 1
    80    31    78 1
    81    32    79 1
    82    33    80 1
    83    33    81 1
@<TRIPOS>SUBSTRUCTURE
     1 DZW         1 TEMP              0 ****  ****    0 ROOT
