@<TRIPOS>MOLECULE
molecule
   27    28     1     0     0
SMALL
bcc


@<TRIPOS>ATOM
      1 O1           0.0000     0.0000     0.0000 oh         1 DZX      -0.617800
      2 C6           1.4290     0.0000     0.0000 c3         1 DZX       0.140400
      3 C5           1.9400     0.0000     1.4420 c3         1 DZX      -0.063700
      4 C4           1.5360     1.3080     2.1290 c3         1 DZX       0.150100
      5 O5           1.9830     2.4150     1.3420 oh         1 DZX      -0.594800
      6 C3           2.1740     1.3810     3.5190 c3         1 DZX       0.139100
      7 O7           1.9150     2.6600     4.0990 oh         1 DZX      -0.603800
      8 C2           3.6910     1.1750     3.3820 c3         1 DZX       0.139500
      9 C7           4.1900     2.0890     2.2400 c3         1 DZX      -0.104400
     10 C8           4.0470     1.2390     0.9610 c3         1 DZX      -0.114400
     11 C1           3.4730    -0.1110     1.4460 c3         1 DZX       0.149500
     12 N1           3.9050    -0.2030     2.8660 n7         1 DZX      -0.792200
     13 H1          -0.3140    -0.3680    -0.8090 ho         1 DZX       0.403000
     14 H61C         1.7900    -0.8850    -0.5110 h1         1 DZX       0.032200
     15 H62C         1.7900     0.8840    -0.5110 h1         1 DZX       0.032200
     16 H5           1.5130    -0.8390     1.9780 hc         1 DZX       0.077700
     17 H4           0.4580     1.3460     2.2250 h1         1 DZX       0.051700
     18 HA           3.8280    -0.9460     0.8540 h1         1 DZX       0.065700
     19 HB           1.2780     3.0320     1.2380 ho         1 DZX       0.396000
     20 H3           1.7580     0.6050     4.1510 h1         1 DZX       0.048700
     21 H7           1.4620     2.5480     4.9180 ho         1 DZX       0.400000
     22 H2           4.2190     1.3530     4.3120 h1         1 DZX       0.071700
     23 H71C         3.5750     2.9780     2.1720 hc         1 DZX       0.063200
     24 H72C         5.2280     2.3590     2.3980 hc         1 DZX       0.063200
     25 HC           4.8800    -0.4260     2.9040 hn         1 DZX       0.351800
     26 H81C         3.3610     1.7130     0.2680 hc         1 DZX       0.057200
     27 H82C         5.0140     1.0920     0.4950 hc         1 DZX       0.057200
@<TRIPOS>BOND
     1     1     2 1
     2     2     3 1
     3     3     4 1
     4     3    11 1
     5     4     5 1
     6     4     6 1
     7     6     7 1
     8     6     8 1
     9     8     9 1
    10     8    12 1
    11     9    10 1
    12    10    11 1
    13    11    12 1
    14     1    13 1
    15     2    14 1
    16     2    15 1
    17     3    16 1
    18     4    17 1
    19    11    18 1
    20     5    19 1
    21     6    20 1
    22     7    21 1
    23     8    22 1
    24     9    23 1
    25     9    24 1
    26    12    25 1
    27    10    26 1
    28    10    27 1
@<TRIPOS>SUBSTRUCTURE
     1 DZX         1 TEMP              0 ****  ****    0 ROOT
