@<TRIPOS>MOLECULE
DZX
   27    28     1     0     0
SMALL
bcc


@<TRIPOS>ATOM
      1 O1           0.0000     0.0000     0.0000 oh         1 DZX      -0.599800
      2 C6           1.4290     0.0000     0.0000 c3         1 DZX       0.218400
      3 C5           1.9400     0.0000     1.4420 c3         1 DZX      -0.063700
      4 C4           1.5360     1.3080     2.1290 c3         1 DZX       0.186100
      5 O5           1.9830     2.4150     1.3420 oh         1 DZX      -0.570800
      6 C3           2.1740     1.3810     3.5190 c3         1 DZX       0.175100
      7 O7           1.9150     2.6600     4.0990 oh         1 DZX      -0.581800
      8 C2           3.6910     1.1750     3.3820 c3         1 DZX       0.109500
      9 C7           4.1900     2.0890     2.2400 c3         1 DZX      -0.066400
     10 C8           4.0470     1.2390     0.9610 c3         1 DZX      -0.079400
     11 C1           3.4730    -0.1110     1.4460 c3         1 DZX       0.128500
     12 N1           3.9050    -0.2030     2.8660 n7         1 DZX      -0.581200
     13 H1          -0.3140    -0.3680    -0.8090 ho         1 DZX       0.390000
     14 H61C         1.7900    -0.8850    -0.5110 h1         1 DZX      -0.002300
     15 H62C         1.7900     0.8840    -0.5110 h1         1 DZX      -0.002300
     16 H5           1.5130    -0.8390     1.9780 hc         1 DZX       0.049700
     17 H4           0.4580     1.3460     2.2250 h1         1 DZX       0.015700
     18 HA           3.8280    -0.9460     0.8540 h1         1 DZX       0.035700
     19 HB           1.2780     3.0320     1.2380 ho         1 DZX       0.382000
     20 H3           1.7580     0.6050     4.1510 h1         1 DZX       0.013700
     21 H7           1.4620     2.5480     4.9180 ho         1 DZX       0.386000
     22 H2           4.2190     1.3530     4.3120 h1         1 DZX       0.040700
     23 H71C         3.5750     2.9780     2.1720 hc         1 DZX       0.041200
     24 H72C         5.2280     2.3590     2.3980 hc         1 DZX       0.041200
     25 HC           4.8800    -0.4260     2.9040 hn         1 DZX       0.257800
     26 H81C         3.3610     1.7130     0.2680 hc         1 DZX       0.037700
     27 H82C         5.0140     1.0920     0.4950 hc         1 DZX       0.037700
@<TRIPOS>BOND
     1     1     2 1   
     2     1    13 1   
     3     2     3 1   
     4     2    14 1   
     5     2    15 1   
     6     3     4 1   
     7     3    11 1   
     8     3    16 1   
     9     4     5 1   
    10     4     6 1   
    11     4    17 1   
    12     5    19 1   
    13     6     7 1   
    14     6     8 1   
    15     6    20 1   
    16     7    21 1   
    17     8     9 1   
    18     8    12 1   
    19     8    22 1   
    20     9    10 1   
    21     9    23 1   
    22     9    24 1   
    23    10    11 1   
    24    10    26 1   
    25    10    27 1   
    26    11    12 1   
    27    11    18 1   
    28    12    25 1   
@<TRIPOS>SUBSTRUCTURE
     1 DZX         1 TEMP              0 ****  ****    0 ROOT
