@<TRIPOS>MOLECULE
molecule
   19    19     1     0     0
SMALL
bcc


@<TRIPOS>ATOM
      1 O11          0.0000     0.0000     0.0000 o          1 DZY      -0.844300
      2 C8           1.3420     0.0000     0.0000 c          1 DZY       0.895600
      3 O10          1.9460     0.0000     1.0470 o          1 DZY      -0.844300
      4 C4           2.0970     0.0010    -1.3040 c3         1 DZY      -0.219700
      5 C1           3.5780     0.0010    -1.0280 cc         1 DZY       0.438600
      6 C3           4.2880    -1.1230    -0.8960 cd         1 DZY      -0.126700
      7 C7           3.7530    -2.5280    -0.9960 c3         1 DZY       0.000200
      8 S6           5.9630    -0.6710    -0.5830 ss         1 DZY      -0.325300
      9 C5           5.5400     0.9830    -0.6620 cd         1 DZY       0.436700
     10 N2           4.2790     1.1090    -0.9030 nc         1 DZY      -0.659000
     11 C9           6.5040     2.1280    -0.4820 c3         1 DZY      -0.104400
     12 H2           1.8360    -0.8840    -1.8720 hc         1 DZY       0.046700
     13 H3           1.8350     0.8850    -1.8720 hc         1 DZY       0.046700
     14 H4           3.0100    -2.6870    -0.2240 hc         1 DZY       0.042033
     15 H5           4.5640    -3.2340    -0.8670 hc         1 DZY       0.042033
     16 H6           3.2990    -2.6730    -1.9690 hc         1 DZY       0.042033
     17 H7           7.5140     1.7430    -0.4170 hc         1 DZY       0.043367
     18 H8           6.4270     2.8010    -1.3270 hc         1 DZY       0.043367
     19 H9           6.2630     2.6630     0.4290 hc         1 DZY       0.043367
@<TRIPOS>BOND
     1     3     2 1
     2     2     1 1
     3     2     4 1
     4    10     9 2
     5    10     5 1
     6    11     9 1
     7     4     5 1
     8     9     8 1
     9     5     6 2
    10     6     8 1
    11     6     7 1
    12     4    12 1
    13     4    13 1
    14     7    14 1
    15     7    15 1
    16     7    16 1
    17    11    17 1
    18    11    18 1
    19    11    19 1
@<TRIPOS>SUBSTRUCTURE
     1 DZY         1 TEMP              0 ****  ****    0 ROOT
