@<TRIPOS>MOLECULE
DZY
   19    19     1     0     0
SMALL
bcc


@<TRIPOS>ATOM
      1 O11         0.7200    0.5200    0.4720 o         1 DZY     -0.835800
      2 C8          1.2220   -0.4640   -0.1330 c         1 DZY      0.920600
      3 O10         1.0250   -1.6730    0.1860 o         1 DZY     -0.835800
      4 C4          2.0870   -0.1900   -1.3910 c3        1 DZY     -0.246700
      5 C1          3.5210    0.0170   -1.0710 cc        1 DZY      0.406600
      6 C3          4.3840   -0.9940   -0.6420 cd        1 DZY     -0.152700
      7 C7          4.0310   -2.3980   -0.4370 c3        1 DZY     -0.044800
      8 S6          5.9360   -0.3670   -0.3710 ss        1 DZY     -0.254300
      9 C5          5.4060    1.2070   -0.8480 cd        1 DZY      0.392700
     10 N2          4.1250    1.2730   -1.1940 nc        1 DZY     -0.626000
     11 C9          6.3480    2.3440   -0.8420 c3        1 DZY     -0.117400
     12 H2          1.6600    0.7040   -1.9120 hc        1 DZY      0.045700
     13 H3          2.0050   -1.0800   -2.0680 hc        1 DZY      0.045700
     14 H4          4.7070   -2.8830    0.3090 hc        1 DZY      0.059033
     15 H5          2.9660   -2.4710   -0.0680 hc        1 DZY      0.059033
     16 H6          4.1070   -2.9650   -1.4010 hc        1 DZY      0.059033
     17 H7          7.3650    2.0010   -0.5310 hc        1 DZY      0.042367
     18 H8          6.4210    2.8030   -1.8600 hc        1 DZY      0.042367
     19 H9          6.0030    3.1340   -0.1270 hc        1 DZY      0.042367
@<TRIPOS>BOND
     1    1    2 1   
     2    2    3 1   
     3    2    4 1   
     4    4    5 1   
     5    4   12 1   
     6    4   13 1   
     7    5    6 2   
     8    5   10 1   
     9    6    7 1   
    10    6    8 1   
    11    7   14 1   
    12    7   15 1   
    13    7   16 1   
    14    8    9 1   
    15    9   10 2   
    16    9   11 1   
    17   11   17 1   
    18   11   18 1   
    19   11   19 1   
@<TRIPOS>SUBSTRUCTURE
     1 DZY         1 TEMP              0 ****  ****    0 ROOT
