@<TRIPOS>MOLECULE
DZZ
   14    13     1     0     0
SMALL
bcc


@<TRIPOS>ATOM
      1 O4         -0.5570   -0.0020    0.4210 oh        1 DZZ     -0.705400
      2 P1          1.0240   -0.0010    0.5470 p5        1 DZZ      1.231200
      3 S1          1.8370   -0.0020    2.2310 s         1 DZZ     -0.566000
      4 O2          1.3190   -1.2160   -0.4480 os        1 DZZ     -0.554200
      5 C1          2.2210   -2.2350   -0.0730 c3        1 DZZ      0.131700
      6 O1          1.3180    1.2160   -0.4460 os        1 DZZ     -0.554200
      7 C2          2.2170    2.2360   -0.0680 c3        1 DZZ      0.131700
      8 HO4        -0.9120   -0.0030   -0.4690 ho        1 DZZ      0.496000
      9 H11         3.0590   -2.2440   -0.8180 h1        1 DZZ      0.065033
     10 H12         2.6070   -2.0490    0.9670 h1        1 DZZ      0.065033
     11 H13         1.6710   -3.2110   -0.1270 h1        1 DZZ      0.065033
     12 H21         2.6010    2.0500    0.9720 h1        1 DZZ      0.065033
     13 H22         1.6640    3.2110   -0.1220 h1        1 DZZ      0.065033
     14 H23         3.0560    2.2490   -0.8120 h1        1 DZZ      0.065033
@<TRIPOS>BOND
     1    1    2 1   
     2    1    8 1   
     3    2    3 2   
     4    2    4 1   
     5    2    6 1   
     6    4    5 1   
     7    5    9 1   
     8    5   10 1   
     9    5   11 1   
    10    6    7 1   
    11    7   12 1   
    12    7   13 1   
    13    7   14 1   
@<TRIPOS>SUBSTRUCTURE
     1 DZZ         1 TEMP              0 ****  ****    0 ROOT
