@<TRIPOS>MOLECULE
molecule
   14    13     1     0     0
SMALL
bcc


@<TRIPOS>ATOM
      1 O4           0.0000     0.0000     0.0000 oh         1 DZZ      -0.661400
      2 P1           1.6100     0.0000     0.0000 p5         1 DZZ       1.156200
      3 S1           2.2310     0.0000     1.7570 s          1 DZZ      -0.597000
      4 O2           2.1470    -1.3150    -0.7600 os         1 DZZ      -0.495200
      5 C1           1.9500    -2.4150     0.1320 c3         1 DZZ       0.108700
      6 O1           2.1470     1.3150    -0.7590 os         1 DZZ      -0.495200
      7 C2           1.9500     2.4150     0.1320 c3         1 DZZ       0.108700
      8 HO4         -0.3140     0.0000    -0.8890 ho         1 DZZ       0.446000
      9 H11          2.7370    -2.4210     0.8760 h1         1 DZZ       0.071367
     10 H12          0.9900    -2.3150     0.6230 h1         1 DZZ       0.071367
     11 H13          1.9750    -3.3420    -0.4280 h1         1 DZZ       0.071367
     12 H21          0.9900     2.3150     0.6230 h1         1 DZZ       0.071367
     13 H22          1.9750     3.3420    -0.4280 h1         1 DZZ       0.071367
     14 H23          2.7370     2.4220     0.8770 h1         1 DZZ       0.071367
@<TRIPOS>BOND
     1     1     2 1
     2     1     8 1
     3     2     3 2
     4     2     4 1
     5     2     6 1
     6     4     5 1
     7     5     9 1
     8     5    10 1
     9     5    11 1
    10     6     7 1
    11     7    12 1
    12     7    13 1
    13     7    14 1
@<TRIPOS>SUBSTRUCTURE
     1 DZZ         1 TEMP              0 ****  ****    0 ROOT
