@<TRIPOS>MOLECULE
molecule
   31    33     1     0     0
SMALL
bcc


@<TRIPOS>ATOM
      1 C1           0.0000     0.0000     0.0000 ca         1 801      -0.121900
      2 C2           1.4010     0.0000     0.0000 ca         1 801      -0.038000
      3 C3           2.0920     0.0000     1.1760 ca         1 801      -0.133000
      4 C4           1.4110     0.0010     2.3870 ca         1 801       0.051000
      5 C5           0.0030     0.0020     2.4070 ca         1 801       0.023000
      6 C6          -0.7000     0.0080     1.2010 ca         1 801      -0.204000
      7 C7          -0.7360    -0.0000    -1.2820 ce         1 801       0.137800
      8 N1          -2.0690     0.0010    -1.2850 nz         1 801      -0.688600
      9 N2          -0.0680    -0.0020    -2.4350 nv         1 801      -0.511100
     10 N3           1.8120     0.0020     3.7060 na         1 801      -0.188600
     11 N4          -0.3800     0.0040     3.7070 nc         1 801      -0.280600
     12 C8           0.6800     0.0030     4.4760 cc         1 801       0.224500
     13 C1'          0.6580     0.0040     5.9550 cd         1 801       0.026000
     14 N2'          1.8000     0.0040     6.6320 nd         1 801      -0.192000
     15 C3'          1.8230     0.0050     7.9480 cc         1 801       0.141200
     16 C4'          0.6490     0.0050     8.6830 cc         1 801      -0.169000
     17 C5'         -0.5690     0.0070     8.0220 cd         1 801      -0.104000
     18 C6'         -0.5680     0.0100     6.6310 c          1 801       0.386100
     19 O6'         -1.7370     0.0110     5.9410 o          1 801      -0.487100
     20 HC2          1.9380    -0.0060    -0.9400 ha         1 801       0.141000
     21 HC3          3.1760    -0.0000     1.1660 ha         1 801       0.160000
     22 HC6         -1.7840     0.0080     1.2010 ha         1 801       0.130000
     23 HH11        -2.4010    -0.0020    -2.2290 hn         1 801       0.452133
     24 HH12        -2.4030     0.8200    -0.8170 hn         1 801       0.452133
     25 HH21        -0.5660    -0.0020    -3.3020 hn         1 801       0.306700
     26 HH22         0.9330    -0.0030    -2.4330 hn         1 801       0.306700
     27 HN3          2.7560     0.0010     4.0390 hn         1 801       0.340700
     28 HC3'         2.7750     0.0050     8.4640 h4         1 801       0.050800
     29 HC4'         0.6830     0.0040     9.7650 ha         1 801       0.161000
     30 HC5'        -1.5000     0.0090     8.5760 ha         1 801       0.175000
     31 H13         -2.4040    -0.8140    -0.8110 hn         1 801       0.452133
@<TRIPOS>BOND
     1     1     2 ar  
     2     1     6 ar  
     3     1     7 1   
     4     2     3 ar  
     5     2    20 1   
     6     3     4 ar  
     7     3    21 1   
     8     4     5 ar  
     9     4    10 2   
    10     5     6 ar  
    11     5    11 2   
    12     6    22 1   
    13     7     8 1   
    14     7     9 2   
    15     8    23 1   
    16     8    24 1   
    17     9    25 1   
    18     9    26 1   
    19    10    12 1   
    20    10    27 1   
    21    11    12 1   
    22    12    13 2   
    23    13    14 1   
    24    13    18 1   
    25    14    15 2   
    26    15    16 1   
    27    15    28 1   
    28    16    17 2   
    29    16    29 1   
    30    17    18 1   
    31    17    30 1   
    32    18    19 2   
    33    31     8 1   
@<TRIPOS>SUBSTRUCTURE
     1 801         1 TEMP              0 ****  ****    0 ROOT
