@<TRIPOS>MOLECULE
801
   30    32     1     0     0
SMALL
bcc


@<TRIPOS>ATOM
      1 C1          0.0090   -0.0010   -0.0350 ca        1 801     -0.294900
      2 C2          1.4090   -0.1700   -0.0010 ca        1 801     -0.104000
      3 C3          2.1000   -0.2420    1.2010 ca        1 801     -0.154000
      4 C4          1.3720   -0.1330    2.3880 ca        1 801      0.026000
      5 C5         -0.0960    0.0490    2.3700 ca        1 801     -0.022000
      6 C6         -0.7510    0.1120    1.1480 ca        1 801     -0.096000
      7 C7         -0.6850    0.0530   -1.3240 ce        1 801      0.529400
      8 N1         -1.9180   -0.5090   -1.4400 nh        1 801     -0.501600
      9 N2         -0.0830    0.6560   -2.3860 nh        1 801     -0.485700
     10 N3          1.7220   -0.1570    3.7170 na        1 801     -0.255600
     11 N4         -0.5830    0.1310    3.6700 nc        1 801     -0.315600
     12 C8          0.5120    0.0040    4.4920 cc        1 801      0.326500
     13 C1'         0.5500    0.0170    5.9250 cd        1 801     -0.171600
     14 N2'         1.7900   -0.0750    6.5260 nd        1 801     -0.543300
     15 C3'         1.8730   -0.0570    7.8350 cc        1 801      0.331500
     16 C4'         0.7300    0.0540    8.7070 cc        1 801     -0.209600
     17 C5'        -0.5030    0.1420    8.1560 cd        1 801     -0.242200
     18 C6'        -0.6910    0.1230    6.6960 c         1 801      0.563500
     19 O6'        -1.8400    0.1890    6.2140 o         1 801     -0.613100
     20 HC2         1.9800   -0.2900   -0.9340 ha        1 801      0.117000
     21 HC3         3.1890   -0.3870    1.2120 ha        1 801      0.144000
     22 HC6        -1.8360    0.2880    1.1310 ha        1 801      0.144000
     23 HH11       -2.3140   -0.9460   -0.6350 hn        1 801      0.311950
     24 HH12       -2.4730   -0.4340   -2.2600 hn        1 801      0.311950
     25 HH21        0.8090    1.0770   -2.2460 hn        1 801      0.311950
     26 HH22       -0.4830    0.6800   -3.2940 hn        1 801      0.311950
     27 HN3         2.6290   -0.2560    4.0930 hn        1 801      0.325700
     28 HC3'        2.8820   -0.1320    8.2720 h4        1 801      0.004800
     29 HC4'        0.8930    0.0650    9.7920 ha        1 801      0.117000
     30 HC5'       -1.4160    0.2290    8.7610 ha        1 801      0.132000
@<TRIPOS>BOND
     1    1    2 ar  
     2    1    6 ar  
     3    1    7 1   
     4    2    3 ar  
     5    2   20 1   
     6    3    4 ar  
     7    3   21 1   
     8    4    5 ar  
     9    4   10 2   
    10    5    6 ar  
    11    5   11 2   
    12    6   22 1   
    13    7    8 2   
    14    7    9 1   
    15    8   23 1   
    16    8   24 1   
    17    9   25 1   
    18    9   26 1   
    19   10   12 1   
    20   10   27 1   
    21   11   12 1   
    22   12   13 2   
    23   13   14 1   
    24   13   18 1   
    25   14   15 2   
    26   15   16 1   
    27   15   28 1   
    28   16   17 2   
    29   16   29 1   
    30   17   18 1   
    31   17   30 1   
    32   18   19 2   
@<TRIPOS>SUBSTRUCTURE
     1 801         1 TEMP              0 ****  ****    0 ROOT
