@<TRIPOS>MOLECULE
molecule
   32    34     1     0     0
SMALL
bcc


@<TRIPOS>ATOM
      1 C1           0.0000     0.0000     0.0000 ca         1 802      -0.122900
      2 C2           1.4010     0.0000     0.0000 ca         1 802      -0.057000
      3 C3           2.0930     0.0000     1.1770 ca         1 802      -0.114000
      4 C4           1.4120     0.0010     2.3880 ca         1 802       0.035000
      5 C5           0.0040     0.0000     2.4070 ca         1 802       0.022000
      6 C6          -0.7000     0.0060     1.2020 ca         1 802      -0.188000
      7 C7          -0.7370    -0.0010    -1.2810 ce         1 802       0.144800
      8 N1          -2.0680    -0.0000    -1.2840 nz         1 802      -0.690600
      9 N2          -0.0690    -0.0000    -2.4340 nv         1 802      -0.506100
     10 N3           1.8140     0.0000     3.7070 na         1 802      -0.177600
     11 N4          -0.3790     0.0000     3.7080 nc         1 802      -0.332600
     12 C8           0.6820     0.0000     4.4770 cc         1 802       0.239500
     13 C1'          0.6590     0.0000     5.9550 cd         1 802      -0.044000
     14 C2'         -0.2790     0.7720     6.6430 cd         1 802      -0.140000
     15 C3'         -0.2940     0.7660     8.0240 cc         1 802       0.202500
     16 F3'         -1.2020     1.5130     8.6890 f          1 802      -0.133500
     17 C4'          0.6190    -0.0020     8.7290 cc         1 802      -0.132000
     18 C5'          1.5520    -0.7680     8.0580 cd         1 802      -0.121000
     19 C6'          1.5760    -0.7790     6.6720 c          1 802       0.429100
     20 O6'          2.4930    -1.5320     6.0120 o          1 802      -0.581100
     21 HC2          1.9390    -0.0040    -0.9400 ha         1 802       0.141000
     22 HC3          3.1760    -0.0000     1.1660 ha         1 802       0.162000
     23 HC6         -1.7830     0.0050     1.2030 ha         1 802       0.125000
     24 HH11        -2.4010    -0.0030    -2.2280 hn         1 802       0.452800
     25 HH12        -2.4030     0.8180    -0.8160 hn         1 802       0.452800
     26 HH21        -0.5680    -0.0010    -3.3010 hn         1 802       0.308700
     27 HH22         0.9320     0.0000    -2.4320 hn         1 802       0.308700
     28 HN3          2.7580     0.0000     4.0390 hn         1 802       0.345700
     29 HC2'        -0.9490     1.4240     6.0960 ha         1 802       0.171000
     30 HC4'         0.6030     0.0010     9.8120 ha         1 802       0.168000
     31 HC5'         2.2610    -1.3680     8.6150 ha         1 802       0.176000
     32 H13         -2.4030    -0.8190    -0.8160 hn         1 802       0.452800
@<TRIPOS>BOND
     1     1     2 ar
     2     1     6 ar
     3     1     7 1
     4     2     3 ar
     5     2    21 1
     6     3     4 ar
     7     3    22 1
     8     4     5 ar
     9     4    10 2
    10     5     6 ar
    11     5    11 2
    12     6    23 1
    13     7     8 1
    14     7     9 2
    15     8    24 1
    16     8    25 1
    17     9    26 1
    18     9    27 1
    19    10    12 1
    20    10    28 1
    21    11    12 1
    22    12    13 2
    23    13    14 1
    24    13    19 1
    25    14    15 2
    26    14    29 1
    27    15    16 1
    28    15    17 1
    29    17    18 2
    30    17    30 1
    31    18    19 1
    32    18    31 1
    33    19    20 2
    34    32     8 1
@<TRIPOS>SUBSTRUCTURE
     1 802         1 TEMP              0 ****  ****    0 ROOT
