@<TRIPOS>MOLECULE
802
   31    33     1     0     0
SMALL
bcc


@<TRIPOS>ATOM
      1 C1         -0.0110    0.0160   -0.0200 ca        1 802     -0.298900
      2 C2          1.3240   -0.4430   -0.0130 ca        1 802     -0.100000
      3 C3          2.0140   -0.6420    1.1730 ca        1 802     -0.149000
      4 C4          1.3560   -0.3660    2.3750 ca        1 802      0.034000
      5 C5         -0.0420    0.1190    2.3860 ca        1 802     -0.025000
      6 C6         -0.7010    0.3000    1.1790 ca        1 802     -0.093000
      7 C7         -0.7070    0.1990   -1.2950 ce        1 802      0.529400
      8 N1         -2.0330   -0.0950   -1.3790 nh        1 802     -0.501100
      9 N2         -0.0170    0.6550   -2.3770 nh        1 802     -0.485200
     10 N3          1.7320   -0.4420    3.6930 na        1 802     -0.243600
     11 N4         -0.4600    0.3180    3.6970 nc        1 802     -0.372600
     12 C8          0.6150   -0.0240    4.4910 cc        1 802      0.314500
     13 C1'         0.6760    0.0100    5.9170 cd        1 802     -0.319200
     14 C2'        -0.4720    0.4400    6.6300 cd        1 802     -0.038000
     15 C3'        -0.4750    0.4930    8.0080 cc        1 802     -0.000500
     16 F3'        -1.5790    0.9050    8.6910 f         1 802     -0.195500
     17 C4'         0.6910    0.1120    8.7480 cc        1 802     -0.075000
     18 C5'         1.8040   -0.3030    8.0920 cd        1 802     -0.262200
     19 C6'         1.8710   -0.3810    6.6370 c         1 802      0.576500
     20 O6'         2.9350   -0.7740    6.0820 o         1 802     -0.714100
     21 HC2         1.8320   -0.6920   -0.9560 ha        1 802      0.119000
     22 HC3         3.0490   -1.0130    1.1650 ha        1 802      0.151000
     23 HC6        -1.7260    0.6970    1.1790 ha        1 802      0.140000
     24 HH11       -2.4910   -0.4390   -0.5630 hn        1 802      0.311950
     25 HH12       -2.5750    0.0790   -2.1920 hn        1 802      0.311950
     26 HH21        0.9450    0.8840   -2.2600 hn        1 802      0.311950
     27 HH22       -0.4210    0.7480   -3.2780 hn        1 802      0.311950
     28 HN3         2.6070   -0.7310    4.0800 hn        1 802      0.358700
     29 HC2'       -1.3790    0.7370    6.0800 ha        1 802      0.142000
     30 HC4'        0.6510    0.1670    9.8460 ha        1 802      0.126000
     31 HC5'        2.7130   -0.6010    8.6340 ha        1 802      0.135000
@<TRIPOS>BOND
     1    1    2 ar  
     2    1    6 ar  
     3    1    7 1   
     4    2    3 ar  
     5    2   21 1   
     6    3    4 ar  
     7    3   22 1   
     8    4    5 ar  
     9    4   10 2   
    10    5    6 ar  
    11    5   11 2   
    12    6   23 1   
    13    7    8 2   
    14    7    9 1   
    15    8   24 1   
    16    8   25 1   
    17    9   26 1   
    18    9   27 1   
    19   10   12 1   
    20   10   28 1   
    21   11   12 1   
    22   12   13 2   
    23   13   14 1   
    24   13   19 1   
    25   14   15 2   
    26   14   29 1   
    27   15   16 1   
    28   15   17 1   
    29   17   18 2   
    30   17   30 1   
    31   18   19 1   
    32   18   31 1   
    33   19   20 2   
@<TRIPOS>SUBSTRUCTURE
     1 802         1 TEMP              0 ****  ****    0 ROOT
