@<TRIPOS>MOLECULE
803
   65    67     1     0     0
SMALL
bcc


@<TRIPOS>ATOM
      1 C1          1.1730   -0.0970    0.0450 c3        1 803      0.146100
      2 C2         -0.3100   -0.4470    0.0660 c3        1 803     -0.088400
      3 C3         -0.6450   -1.7070    0.8480 c3        1 803     -0.024500
      4 C21        -0.5780   -2.9400   -0.0360 c3        1 803     -0.088100
      5 C4          0.2230   -1.8860    2.0410 c2        1 803     -0.148200
      6 C24         1.3070   -1.1430    2.3230 ce        1 803     -0.076200
      7 C5          2.0900   -1.3960    3.5240 ce        1 803     -0.128000
      8 C6          3.2300   -0.7490    3.7960 c2        1 803     -0.158200
      9 C7          3.8150    0.2840    2.8960 c3        1 803     -0.030500
     10 C20         3.5860    1.6640    3.4860 c3        1 803     -0.089100
     11 C8          3.2820    0.1290    1.4670 c3        1 803     -0.049700
     12 C9          1.7540    0.0000    1.4620 c3        1 803     -0.017500
     13 C10         3.7510    1.2540    0.5570 c3        1 803     -0.084400
     14 C11         5.2600    1.3140    0.4420 c3        1 803     -0.102400
     15 C12         5.6910    2.3840   -0.5610 c3        1 803      0.143100
     16 C13         7.0270    2.0620   -1.2090 c3        1 803     -0.115400
     17 C14         8.1390    2.1500   -0.1740 c3        1 803      0.144100
     18 O3          9.3560    1.8700   -0.8520 oh        1 803     -0.590800
     19 C15         8.1700    3.5450    0.4350 c3        1 803     -0.208400
     20 C22         6.8140    4.1110    0.7140 c         1 803      0.720600
     21 O2          6.5870    5.0650    1.4610 o         1 803     -0.581500
     22 O1          5.6820    3.6670    0.0820 os        1 803     -0.412900
     23 O4          1.8950   -1.1160   -0.6760 os        1 803     -0.430900
     24 C23         2.2720   -0.8640   -1.9640 c         1 803      0.634100
     25 O5          2.0140    0.2320   -2.4670 o         1 803     -0.550000
     26 C16         2.9810   -2.0430   -2.5850 c3        1 803     -0.108700
     27 C19         1.9860   -2.8340   -3.4100 c3        1 803     -0.093100
     28 C17         4.1450   -1.5650   -3.4410 c3        1 803     -0.077400
     29 C18         5.2610   -0.9880   -2.6090 c3        1 803     -0.102100
     30 H1          1.2960    0.8960   -0.4760 h1        1 803      0.079700
     31 H21        -0.6690   -0.5540   -0.9910 hc        1 803      0.053700
     32 H22        -0.8490    0.4240    0.5250 hc        1 803      0.053700
     33 H3         -1.7100   -1.6050    1.2160 hc        1 803      0.051700
     34 H211       -0.7940   -3.8580    0.5610 hc        1 803      0.038033
     35 H212       -1.3280   -2.8640   -0.8590 hc        1 803      0.038033
     36 H213        0.4400   -3.0360   -0.4880 hc        1 803      0.038033
     37 H4         -0.0790   -2.7100    2.7090 ha        1 803      0.123000
     38 H5          1.6940   -2.1610    4.2120 ha        1 803      0.125000
     39 H6          3.7940   -0.9470    4.7200 ha        1 803      0.124000
     40 H7          4.9300    0.1080    2.8540 hc        1 803      0.047700
     41 H201        2.5110    1.9540    3.4170 hc        1 803      0.040033
     42 H202        4.1960    2.4280    2.9450 hc        1 803      0.040033
     43 H203        3.8850    1.6720    4.5620 hc        1 803      0.040033
     44 H8          3.6950   -0.8400    1.0600 hc        1 803      0.060700
     45 H9          1.3210    0.9460    1.9050 hc        1 803      0.067700
     46 H101        3.3620    2.2400    0.9220 hc        1 803      0.056700
     47 H102        3.3310    1.0870   -0.4740 hc        1 803      0.056700
     48 H111        5.7140    1.5460    1.4410 hc        1 803      0.051200
     49 H112        5.6520    0.3160    0.1090 hc        1 803      0.051200
     50 H12         4.9040    2.5060   -1.3630 h1        1 803      0.093700
     51 H131        7.2350    2.7870   -2.0390 hc        1 803      0.075200
     52 H132        6.9950    1.0340   -1.6540 hc        1 803      0.075200
     53 H14         7.9750    1.3810    0.6340 h1        1 803      0.043700
     54 HO3        10.0600    1.9230   -0.1940 ho        1 803      0.405000
     55 H151        8.7590    3.5410    1.3900 hc        1 803      0.090700
     56 H152        8.6850    4.2490   -0.2770 hc        1 803      0.090700
     57 H16         3.3710   -2.6960   -1.7530 hc        1 803      0.082700
     58 H191        2.4850   -3.7350   -3.8420 hc        1 803      0.048367
     59 H192        1.5850   -2.2120   -4.2460 hc        1 803      0.048367
     60 H193        1.1340   -3.1690   -2.7690 hc        1 803      0.048367
     61 H171        4.5290   -2.4360   -4.0360 hc        1 803      0.057200
     62 H172        3.7740   -0.7930   -4.1660 hc        1 803      0.057200
     63 H181        6.0950   -0.6450   -3.2670 hc        1 803      0.037700
     64 H182        5.6620   -1.7480   -1.8960 hc        1 803      0.037700
     65 H183        4.8930   -0.1110   -2.0180 hc        1 803      0.037700
@<TRIPOS>BOND
     1    1    2 1   
     2    1   12 1   
     3    1   23 1   
     4    1   30 1   
     5    2    3 1   
     6    2   31 1   
     7    2   32 1   
     8    3    4 1   
     9    3    5 1   
    10    3   33 1   
    11    4   34 1   
    12    4   35 1   
    13    4   36 1   
    14    5    6 2   
    15    5   37 1   
    16    6    7 1   
    17    6   12 1   
    18    7    8 2   
    19    7   38 1   
    20    8    9 1   
    21    8   39 1   
    22    9   10 1   
    23    9   11 1   
    24    9   40 1   
    25   10   41 1   
    26   10   42 1   
    27   10   43 1   
    28   11   12 1   
    29   11   13 1   
    30   11   44 1   
    31   12   45 1   
    32   13   14 1   
    33   13   46 1   
    34   13   47 1   
    35   14   15 1   
    36   14   48 1   
    37   14   49 1   
    38   15   16 1   
    39   15   22 1   
    40   15   50 1   
    41   16   17 1   
    42   16   51 1   
    43   16   52 1   
    44   17   18 1   
    45   17   19 1   
    46   17   53 1   
    47   18   54 1   
    48   19   20 1   
    49   19   55 1   
    50   19   56 1   
    51   20   21 2   
    52   20   22 1   
    53   23   24 1   
    54   24   25 2   
    55   24   26 1   
    56   26   27 1   
    57   26   28 1   
    58   26   57 1   
    59   27   58 1   
    60   27   59 1   
    61   27   60 1   
    62   28   29 1   
    63   28   61 1   
    64   28   62 1   
    65   29   63 1   
    66   29   64 1   
    67   29   65 1   
@<TRIPOS>SUBSTRUCTURE
     1 803         1 TEMP              0 ****  ****    0 ROOT
