@<TRIPOS>MOLECULE
molecule
   65    67     1     0     0
SMALL
bcc


@<TRIPOS>ATOM
      1 C1           1.5490     0.0000     0.0000 c3         1 803       0.135100
      2 C2           0.0000     0.0000     0.0000 c3         1 803      -0.094400
      3 C3          -0.5740    -1.2420     0.7250 c3         1 803      -0.030500
      4 C21         -0.8290    -2.4010    -0.2630 c3         1 803      -0.085100
      5 C4           0.2960    -1.7430     1.8550 c2         1 803      -0.146200
      6 C24          1.4670    -1.1920     2.1950 ce         1 803      -0.083200
      7 C5           2.2470    -1.7480     3.3080 ce         1 803      -0.122000
      8 C6           3.4370    -1.2470     3.6600 c2         1 803      -0.164200
      9 C7           4.0800    -0.0890     2.9480 c3         1 803      -0.031500
     10 C20          3.8600     1.2630     3.6570 c3         1 803      -0.080100
     11 C8           3.5460    -0.0560     1.5060 c3         1 803      -0.066700
     12 C9           2.0110     0.0000     1.4670 c3         1 803      -0.014500
     13 C10          4.1130     1.1480     0.7460 c3         1 803      -0.082400
     14 C11          5.6450     1.0280     0.6760 c3         1 803      -0.109400
     15 C12          6.0930     1.9800    -0.4370 c3         1 803       0.147100
     16 C13          7.6310     1.9080    -0.5750 c3         1 803      -0.121400
     17 C14          8.2840     3.2760    -0.3550 c3         1 803       0.146100
     18 O3           8.0910     4.1030    -1.5060 oh         1 803      -0.588800
     19 C15          7.5880     3.8400     0.8900 c3         1 803      -0.198400
     20 C22          6.1740     4.1560     0.4930 c          1 803       0.737600
     21 O2           5.6850     5.2420     0.7690 o          1 803      -0.587500
     22 O1           5.4550     3.2410    -0.1630 os         1 803      -0.374900
     23 O4           2.0460    -1.1850    -0.6370 os         1 803      -0.386900
     24 C23          2.0670    -1.0680    -1.9680 c          1 803       0.629100
     25 O5           1.7110    -0.0570    -2.5550 o          1 803      -0.548000
     26 C16          2.5710    -2.2930    -2.6800 c3         1 803      -0.130700
     27 C19          1.4980    -2.8150    -3.6530 c3         1 803      -0.082100
     28 C17          3.8660    -1.9710    -3.4390 c3         1 803      -0.071400
     29 C18          4.9380    -1.5780    -2.4060 c3         1 803      -0.102100
     30 H1           1.9190     0.8840    -0.5050 h1         1 803       0.083700
     31 H21         -0.3520     0.8930     0.5020 hc         1 803       0.059200
     32 H22         -0.3510     0.0030    -1.0250 hc         1 803       0.059200
     33 H3          -1.5280    -0.9550     1.1520 hc         1 803       0.051700
     34 H211        -1.6130    -3.0400     0.1250 hc         1 803       0.037033
     35 H212        -1.1310    -1.9990    -1.2220 hc         1 803       0.037033
     36 H213         0.0800    -2.9780    -0.3840 hc         1 803       0.037033
     37 H4          -0.0500    -2.5960     2.4250 ha         1 803       0.124000
     38 H5           1.8470    -2.5890     3.8610 ha         1 803       0.125000
     39 H6           3.9610    -1.6960     4.4950 ha         1 803       0.121000
     40 H7           5.1460    -0.2770     2.9040 hc         1 803       0.047700
     41 H201         3.5860     1.0880     4.6900 hc         1 803       0.038367
     42 H202         4.7730     1.8440     3.6190 hc         1 803       0.038367
     43 H203         3.0650     1.8070     3.1600 hc         1 803       0.038367
     44 H8           3.8650    -0.9620     1.0060 hc         1 803       0.063700
     45 H9           1.6710     0.9060     1.9530 hc         1 803       0.075700
     46 H101         3.7050     1.1670    -0.2570 hc         1 803       0.059200
     47 H102         3.8440     2.0610     1.2640 hc         1 803       0.059200
     48 H111         6.0860     1.3240     1.6200 hc         1 803       0.050700
     49 H112         5.9290     0.0110     0.4330 hc         1 803       0.050700
     50 H12          5.6770     1.6130    -1.3680 h1         1 803       0.082700
     51 H131         8.0180     1.2110     0.1580 hc         1 803       0.061200
     52 H132         7.8780     1.5560    -1.5700 hc         1 803       0.061200
     53 H14          9.3420     3.1490    -0.1580 h1         1 803       0.043700
     54 HO3          8.9290     4.3540    -1.8570 ho         1 803       0.409000
     55 H151         7.5920     3.1020     1.6820 hc         1 803       0.081200
     56 H152         8.0900     4.7430     1.2150 hc         1 803       0.081200
     57 H16          2.7790    -3.0620    -1.9450 hc         1 803       0.071700
     58 H191         1.9110    -2.8670    -4.6530 hc         1 803       0.045033
     59 H192         1.1790    -3.8030    -3.3430 hc         1 803       0.045033
     60 H193         0.6480    -2.1430    -3.6480 hc         1 803       0.045033
     61 H171         3.6950    -1.1470    -4.1210 hc         1 803       0.056700
     62 H172         4.1920    -2.8430    -3.9930 hc         1 803       0.056700
     63 H181         4.8250    -2.1870    -1.5180 hc         1 803       0.037033
     64 H182         4.8220    -0.5330    -2.1440 hc         1 803       0.037033
     65 H183         5.9220    -1.7360    -2.8300 hc         1 803       0.037033
@<TRIPOS>BOND
     1     1     2 1
     2     1    12 1
     3     1    23 1
     4     1    30 1
     5     2     3 1
     6     2    31 1
     7     2    32 1
     8     3     4 1
     9     3     5 1
    10     3    33 1
    11     4    34 1
    12     4    35 1
    13     4    36 1
    14     5     6 2
    15     5    37 1
    16     6     7 1
    17     6    12 1
    18     7     8 2
    19     7    38 1
    20     8     9 1
    21     8    39 1
    22     9    10 1
    23     9    11 1
    24     9    40 1
    25    10    41 1
    26    10    42 1
    27    10    43 1
    28    11    12 1
    29    11    13 1
    30    11    44 1
    31    12    45 1
    32    13    14 1
    33    13    46 1
    34    13    47 1
    35    14    15 1
    36    14    48 1
    37    14    49 1
    38    15    16 1
    39    15    22 1
    40    15    50 1
    41    16    17 1
    42    16    51 1
    43    16    52 1
    44    17    18 1
    45    17    19 1
    46    17    53 1
    47    18    54 1
    48    19    20 1
    49    19    55 1
    50    19    56 1
    51    20    21 2
    52    20    22 1
    53    23    24 1
    54    24    25 2
    55    24    26 1
    56    26    27 1
    57    26    28 1
    58    26    57 1
    59    27    58 1
    60    27    59 1
    61    27    60 1
    62    28    29 1
    63    28    61 1
    64    28    62 1
    65    29    63 1
    66    29    64 1
    67    29    65 1
@<TRIPOS>SUBSTRUCTURE
     1 803         1 TEMP              0 ****  ****    0 ROOT
