@<TRIPOS>MOLECULE
804
   60    65     1     0     0
SMALL
bcc


@<TRIPOS>ATOM
      1 CAA        -0.0700   -0.0050   -0.0270 ca        1 804     -0.103000
      2 CAB         0.0020   -0.0070    2.3930 ca        1 804     -0.103000
      3 CAC         1.3220   -0.0330   -0.0660 ca        1 804     -0.122000
      4 CAD         1.3940   -0.0330    2.3510 ca        1 804     -0.122000
      5 CAE         4.2820    0.6960    1.9790 ca        1 804     -0.116000
      6 CAF         4.1980   -0.8690    0.1400 ca        1 804     -0.116000
      7 CAG         5.6720    0.6730    1.9360 ca        1 804     -0.117500
      8 CAH         5.5890   -0.8970    0.0980 ca        1 804     -0.117500
      9 CAI        12.3940   -0.0670    1.3440 ca        1 804     -0.151000
     10 CAJ        11.2720    0.0920    2.1390 ca        1 804     -0.083000
     11 CAK        11.0430   -0.4690   -0.6550 ca        1 804     -0.097000
     12 CAL         8.6590    0.0770    2.0590 cc        1 804     -0.169200
     13 CAM        -4.9260   -0.1740    1.8790 c3        1 804     -0.130400
     14 CAN        16.0980   -0.4490   -1.8980 c3        1 804     -0.129400
     15 CAO        -4.3300   -0.8690    0.6550 c3        1 804      0.108800
     16 CAP        14.9010    0.1000   -2.6730 c3        1 804      0.110800
     17 CAQ        -4.2140    1.1520    2.1430 c3        1 804      0.184800
     18 CAR        15.6840   -1.6470   -1.0440 c3        1 804      0.186800
     19 NAS        -2.8950   -0.8610    0.5730 n2        1 804     -0.638900
     20 NAT        13.6780    0.2170   -1.9260 n2        1 804     -0.644900
     21 NAU        -2.7790    1.1220    1.9720 nh        1 804     -0.839200
     22 NAV        14.4010   -1.5210   -0.3930 nh        1 804     -0.842200
     23 NAW         8.5460   -0.3990   -0.1810 na        1 804     -0.181400
     24 CAX        -2.2260    0.0400    1.2430 ce        1 804      0.631800
     25 CAY        13.5210   -0.5100   -0.8500 ce        1 804      0.636800
     26 CAZ        -0.7330    0.0120    1.2040 ca        1 804     -0.115900
     27 CBA        12.2790   -0.3480   -0.0350 ca        1 804     -0.106900
     28 CBB         2.0680   -0.0450    1.1220 cp        1 804     -0.031000
     29 CBC         3.5280   -0.0720    1.0790 cp        1 804     -0.033000
     30 CBD         6.3410   -0.1240    0.9940 ca        1 804     -0.034800
     31 CBE         7.7940   -0.1390    0.9800 cd        1 804     -0.004300
     32 CBF        10.0060   -0.0270    1.5590 ca        1 804     -0.089800
     33 CBG         9.8990   -0.3110    0.1440 ca        1 804     -0.044200
     34 HAA        -0.6490   -0.0020   -0.9630 ha        1 804      0.141000
     35 HAB        -0.5100   -0.0170    3.3670 ha        1 804      0.141000
     36 HAC         1.8410   -0.0400   -1.0360 ha        1 804      0.138000
     37 HAD         1.9690   -0.0570    3.2890 ha        1 804      0.138000
     38 HAE         3.7690    1.3290    2.7180 ha        1 804      0.139000
     39 HAF         3.6180   -1.4860   -0.5640 ha        1 804      0.139000
     40 HAG         6.2540    1.2860    2.6410 ha        1 804      0.137500
     41 HAH         6.0900   -1.5460   -0.6350 ha        1 804      0.137500
     42 HAI        13.3930    0.0440    1.7920 ha        1 804      0.127000
     43 HAJ        11.3670    0.3120    3.2120 ha        1 804      0.136000
     44 HAK        10.9640   -0.6740   -1.7320 ha        1 804      0.151000
     45 HAL         8.3730    0.2740    3.0880 ha        1 804      0.158000
     46 HAM        -4.8320   -0.8410    2.7740 hc        1 804      0.052700
     47 HAMA       -6.0140    0.0220    1.7120 hc        1 804      0.052700
     48 HANA       16.8990   -0.7660   -2.6100 hc        1 804      0.051200
     49 HAO        -4.7420   -0.3900   -0.2800 h1        1 804      0.060200
     50 HAOA       -4.6460   -1.9510    0.6490 h1        1 804      0.060200
     51 HAP        14.7100   -0.5570   -3.5700 h1        1 804      0.058200
     52 HAPA       15.1450    1.1320   -3.0540 h1        1 804      0.058200
     53 HAQ        -4.4650    1.5040    3.1830 h1        1 804      0.046200
     54 HAQA       -4.6100    1.9230    1.4190 h1        1 804      0.046200
     55 HAR        15.6210   -2.5570   -1.7110 h1        1 804      0.044200
     56 HARA       16.4840   -1.8450   -0.2770 h1        1 804      0.044200
     57 HNAU       -2.2510    1.3930    2.7730 hn        1 804      0.406800
     58 HNAV       14.4110   -1.6480    0.5950 hn        1 804      0.409800
     59 HNAW        8.1770   -0.4700   -1.0920 hn        1 804      0.300700
     60 HAN        16.5220    0.3550   -1.2430 hc        1 804      0.051200
@<TRIPOS>BOND
     1    1    3 ar  
     2    1   26 ar  
     3    1   34 1   
     4    2    4 ar  
     5    2   26 ar  
     6    2   35 1   
     7    3   28 ar  
     8    3   36 1   
     9    4   28 ar  
    10    4   37 1   
    11    5    7 ar  
    12    5   29 ar  
    13    5   38 1   
    14    6    8 ar  
    15    6   29 ar  
    16    6   39 1   
    17    7   30 ar  
    18    7   40 1   
    19    8   30 ar  
    20    8   41 1   
    21    9   10 ar  
    22    9   27 ar  
    23    9   42 1   
    24   10   32 ar  
    25   10   43 1   
    26   11   27 ar  
    27   11   33 ar  
    28   11   44 1   
    29   12   31 2   
    30   12   32 1   
    31   12   45 1   
    32   13   15 1   
    33   13   17 1   
    34   13   46 1   
    35   13   47 1   
    36   14   16 1   
    37   14   18 1   
    38   14   48 1   
    39   14   60 1   
    40   15   19 1   
    41   15   49 1   
    42   15   50 1   
    43   16   20 1   
    44   16   51 1   
    45   16   52 1   
    46   17   21 1   
    47   17   53 1   
    48   17   54 1   
    49   18   22 1   
    50   18   55 1   
    51   18   56 1   
    52   19   24 2   
    53   20   25 2   
    54   21   24 1   
    55   21   57 1   
    56   22   25 1   
    57   22   58 1   
    58   23   31 1   
    59   23   33 1   
    60   23   59 1   
    61   24   26 1   
    62   25   27 1   
    63   28   29 1   
    64   30   31 1   
    65   32   33 ar  
@<TRIPOS>SUBSTRUCTURE
     1 804         1 TEMP              0 ****  ****    0 ROOT
