@<TRIPOS>MOLECULE
molecule
   60    65     1     0     0
SMALL
bcc


@<TRIPOS>ATOM
      1 CAA          0.0000     0.0000     0.0000 ca         1 804      -0.120500
      2 CAB          0.0000     0.0020     2.4180 ca         1 804      -0.120500
      3 CAC          1.3770     0.0000     0.0000 ca         1 804      -0.118000
      4 CAD          1.3770     0.0010     2.4180 ca         1 804      -0.118000
      5 CAE          4.3590     0.3650     2.1250 ca         1 804      -0.116500
      6 CAF          4.1110    -1.2110     0.3290 ca         1 804      -0.116500
      7 CAG          5.6910     0.0000     2.2610 ca         1 804      -0.118000
      8 CAH          5.4430    -1.5760     0.4660 ca         1 804      -0.118000
      9 CAI         12.4010     0.0000     2.1870 ca         1 804      -0.147000
     10 CAJ         11.1970     0.0000     2.8760 ca         1 804      -0.083000
     11 CAK         11.2450    -0.6060     0.1690 ca         1 804      -0.133000
     12 CAL          8.7050    -0.3800     2.6270 cc         1 804      -0.200200
     13 CAM         -4.9930     0.0400     1.3730 c3         1 804      -0.173400
     14 CAN         15.8440     0.0000    -2.7940 c3         1 804      -0.177400
     15 CAO         -4.2540    -0.0630    -0.0390 c3         1 804       0.100800
     16 CAP         14.4240    -0.4690    -3.3570 c3         1 804       0.118800
     17 CAQ         -4.5740     1.0820     2.0960 c3         1 804       0.249800
     18 CAR         16.2480    -0.7310    -1.7520 c3         1 804       0.232800
     19 NAS         -2.9190    -0.0360     0.0730 n2         1 804      -0.628900
     20 NAT         13.4870    -0.5400    -2.4020 n2         1 804      -0.672900
     21 NAU         -3.0030     1.0610     2.3440 nu         1 804      -0.906200
     22 NAV         15.1980    -0.7220    -0.5560 nu         1 804      -0.922200
     23 NAW          8.7360    -0.8640     0.4670 na         1 804      -0.151400
     24 CAX         -2.3120     0.9150     1.1300 ce         1 804       0.634800
     25 CAY         13.9200    -1.0750    -1.0180 ce         1 804       0.681800
     26 CAZ         -0.6980     0.0010     1.2090 ca         1 804      -0.103900
     27 CBA         12.4250    -0.3030     0.8330 ca         1 804      -0.115900
     28 CBB          2.0740     0.0000     1.2080 cp         1 804      -0.047000
     29 CBC          3.5690    -0.2410     1.1590 cp         1 804      -0.031000
     30 CBD          6.2330    -0.9710     1.4310 ca         1 804      -0.024800
     31 CBE          7.9240    -0.7260     1.5450 cd         1 804      -0.007300
     32 CBF         10.0010    -0.3070     2.2030 ca         1 804      -0.092800
     33 CBG         10.0250    -0.6060     0.8670 ca         1 804      -0.059200
     34 HAA         -0.5420     0.0000    -0.9380 ha         1 804       0.140500
     35 HAB         -0.5420     0.0030     3.3560 ha         1 804       0.140500
     36 HAC          1.9180    -0.0010    -0.9380 ha         1 804       0.135500
     37 HAD          1.9180     0.0020     3.3560 ha         1 804       0.135500
     38 HAE          3.9360     1.1230     2.7730 ha         1 804       0.140000
     39 HAF          3.4940    -1.6840    -0.4250 ha         1 804       0.140000
     40 HAG          6.3080     0.4730     3.0160 ha         1 804       0.139500
     41 HAH          5.8660    -2.3340    -0.1830 ha         1 804       0.139500
     42 HAI         13.3220     0.2370     2.7050 ha         1 804       0.130000
     43 HAJ         11.1790     0.2370     3.9330 ha         1 804       0.137000
     44 HAK         11.2640    -0.8430    -0.8880 ha         1 804       0.159000
     45 HAL          8.3530    -0.1970     3.6350 ha         1 804       0.150000
     46 HAM         -6.0580     0.1390     1.2030 hc         1 804       0.056700
     47 HAMA        -4.8060    -0.8690     1.9320 hc         1 804       0.056700
     48 HANA        15.7720     1.0360    -2.4860 hc         1 804       0.056200
     49 HAO         -4.5440    -0.9920    -0.5160 h1         1 804       0.071700
     50 HAOA        -4.5690     0.7680    -0.6580 h1         1 804       0.071700
     51 HAP         14.5350    -1.4460    -3.8100 h1         1 804       0.068700
     52 HAPA        14.0990     0.2370    -4.1120 h1         1 804       0.068700
     53 HAQ         -4.8320     1.9950     1.5720 h1         1 804       0.049700
     54 HAQA        -5.0790     1.0680     3.0540 h1         1 804       0.049700
     55 HAR         16.3950    -1.7530    -2.0790 h1         1 804       0.048700
     56 HARA        17.1900    -0.3340    -1.3920 h1         1 804       0.048700
     57 HNAU        -2.5880     0.8940     3.2400 hn         1 804       0.451800
     58 HNAV        15.3630    -0.2670     0.3200 hn         1 804       0.459800
     59 HNAW         8.4470    -1.1110    -0.4590 hn         1 804       0.303700
     60 HAN         16.5790    -0.0850    -3.5850 hc         1 804       0.056200
@<TRIPOS>BOND
     1     1     3 ar  
     2     1    26 ar  
     3     2     4 ar  
     4     2    26 ar  
     5     3    28 ar  
     6     4    28 ar  
     7     5     7 ar  
     8     5    29 ar  
     9     6     8 ar  
    10     6    29 ar  
    11     7    30 ar  
    12     8    30 ar  
    13     9    10 ar  
    14     9    27 ar  
    15    10    32 ar  
    16    11    27 ar  
    17    11    33 ar  
    18    12    31 2   
    19    12    32 1   
    20    13    15 1   
    21    13    17 1   
    22    14    16 1   
    23    14    18 1   
    24    15    19 1   
    25    16    20 1   
    26    17    21 1   
    27    18    22 1   
    28    19    24 2   
    29    20    25 2   
    30    21    24 1   
    31    22    25 1   
    32    23    31 1   
    33    23    33 1   
    34    24    26 1   
    35    25    27 1   
    36    28    29 1   
    37    30    31 1   
    38    32    33 ar  
    39     1    34 1   
    40     2    35 1   
    41     3    36 1   
    42     4    37 1   
    43     5    38 1   
    44     6    39 1   
    45     7    40 1   
    46     8    41 1   
    47     9    42 1   
    48    10    43 1   
    49    11    44 1   
    50    12    45 1   
    51    13    46 1   
    52    13    47 1   
    53    14    60 1   
    54    14    48 1   
    55    15    49 1   
    56    15    50 1   
    57    16    51 1   
    58    16    52 1   
    59    17    53 1   
    60    17    54 1   
    61    18    55 1   
    62    18    56 1   
    63    21    57 1   
    64    22    58 1   
    65    23    59 1   
@<TRIPOS>SUBSTRUCTURE
     1 804         1 TEMP              0 ****  ****    0 ROOT
