@<TRIPOS>MOLECULE
molecule
   69    74     1     0     0
SMALL
bcc


@<TRIPOS>ATOM
      1 N1           0.0000     0.0000     0.0000 n2         1 806      -0.736100
      2 C1           1.3020     0.0000     0.0000 ce         1 806       0.527800
      3 N2           1.9900     0.0000     1.1940 nz         1 806      -0.741600
      4 C2           2.0420     0.0000    -1.2820 ca         1 806      -0.244900
      5 C3           1.3460    -0.0010    -2.4760 ca         1 806      -0.034000
      6 C4           2.0540    -0.0010    -3.6870 ca         1 806      -0.052000
      7 C5           1.3810     0.0050    -4.9220 ca         1 806      -0.095000
      8 C6           2.0980    -0.0010    -6.0790 ca         1 806      -0.055300
      9 C7           3.4920    -0.0010    -6.0600 ca         1 806      -0.078000
     10 C8           4.1760    -0.0000    -4.8830 ca         1 806      -0.129000
     11 C9           3.4720    -0.0000    -3.6670 ca         1 806      -0.015000
     12 C10          4.1500    -0.0010    -2.4350 ca         1 806      -0.064000
     13 C11          3.4480    -0.0000    -1.2750 ca         1 806      -0.153000
     14 C12          1.3740    -0.0000    -7.4010 c3         1 806       0.100600
     15 N21          1.1400    -1.3810    -7.8290 na         1 806      -0.083300
     16 C21          2.0090    -2.1270    -8.6060 ca         1 806       0.004800
     17 C22          1.4450    -3.3950    -8.8080 cp         1 806      -0.083000
     18 C23          0.1510    -3.3940    -8.0990 cp         1 806      -0.088000
     19 C24          0.0180    -2.1270    -7.5150 ca         1 806       0.015800
     20 C25         -0.8510    -4.3490    -7.9360 ca         1 806      -0.057000
     21 C26         -1.9730    -4.0470    -7.1990 ca         1 806      -0.176000
     22 C27         -2.1090    -2.7900    -6.6170 ca         1 806       0.124100
     23 C28         -1.1250    -1.8330    -6.7780 ca         1 806      -0.184000
     24 C29          2.1230    -4.3480    -9.5630 ca         1 806      -0.067000
     25 C30          3.3490    -4.0410   -10.1120 ca         1 806      -0.153000
     26 C31          3.9090    -2.7880    -9.9130 ca         1 806      -0.091000
     27 C32          3.2480    -1.8350    -9.1670 ca         1 806      -0.162000
     28 O           -3.2200    -2.5000    -5.8930 os         1 806      -0.316900
     29 C41         -2.9620    -2.9240    -4.5530 c3         1 806       0.135100
     30 C42         -3.7930    -2.0820    -3.5810 c3         1 806      -0.114900
     31 C43         -3.4860    -2.5180    -2.1450 c3         1 806       0.242300
     32 N41         -3.7100    -3.9650    -2.0310 nh         1 806      -0.794600
     33 C44         -3.0260    -4.8600    -2.9730 c3         1 806       0.242300
     34 C45         -3.3410    -4.3990    -4.4040 c3         1 806      -0.114900
     35 C46         -4.5360    -4.4690    -1.0620 c2         1 806       0.646200
     36 N42         -4.6310    -5.7470    -0.8950 n2         1 806      -0.903100
     37 C47         -5.3340    -3.5340    -0.1900 c3         1 806      -0.185400
     38 HN1         -0.5030     0.0000    -0.8650 hn         1 806       0.480400
     39 HN21         1.3390     0.0030     1.9540 hn         1 806       0.473800
     40 HN22         2.5670     0.8160     1.2480 hn         1 806       0.473800
     41 H3           0.2730     0.1440    -2.4770 ha         1 806       0.139000
     42 H5           0.5360     0.6790    -4.8460 ha         1 806       0.149000
     43 H7           4.2150     0.3650    -6.7780 ha         1 806       0.159000
     44 H8           5.2560     0.0740    -4.8790 ha         1 806       0.153000
     45 H10          5.2330    -0.0010    -2.4130 ha         1 806       0.158000
     46 H11          3.9780     0.0020    -0.3300 ha         1 806       0.105000
     47 H121         1.9760     0.5110    -8.1430 h1         1 806       0.074200
     48 H122         0.4240     0.5100    -7.2930 h1         1 806       0.074200
     49 H25         -0.7460    -5.3280    -8.3880 ha         1 806       0.143000
     50 H26         -2.7500    -4.7900    -7.0670 ha         1 806       0.150000
     51 H28         -1.2390    -0.8570    -6.3220 ha         1 806       0.128000
     52 H29          1.6880    -5.3280    -9.7200 ha         1 806       0.139000
     53 H30          3.8790    -4.7820   -10.6990 ha         1 806       0.140000
     54 H31          4.8730    -2.5560   -10.3480 ha         1 806       0.137000
     55 H32          3.6950    -0.8590    -9.0180 ha         1 806       0.121000
     56 H41         -1.9100    -2.8000    -4.3260 h1         1 806       0.037700
     57 H421        -4.8460    -2.2300    -3.7860 hc         1 806       0.064200
     58 H422        -3.5380    -1.0360    -3.7030 hc         1 806       0.064200
     59 H431        -2.4530    -2.2910    -1.9100 h1         1 806       0.049950
     60 H432        -4.1430    -1.9950    -1.4600 h1         1 806       0.049950
     61 H441        -3.3800    -5.8740    -2.8320 h1         1 806       0.049950
     62 H442        -1.9560    -4.8160    -2.8050 h1         1 806       0.049950
     63 H451        -2.7690    -4.9910    -5.1080 hc         1 806       0.064200
     64 H452        -4.4000    -4.5200    -4.5970 hc         1 806       0.064200
     65 HN42        -5.2340    -6.1170    -0.1870 hn         1 806       0.412400
     66 H471        -5.9470    -4.1110     0.4920 hc         1 806       0.052033
     67 H472        -4.6590    -2.9040     0.3760 hc         1 806       0.052033
     68 H473        -5.9710    -2.9160    -0.8110 hc         1 806       0.052033
     69 H23          2.5550    -0.8240     1.2550 hn         1 806       0.473800
@<TRIPOS>BOND
     1     1     2 2
     2     1    38 1
     3     2     3 1
     4     2     4 1
     5     3    39 1
     6     3    40 1
     7     4     5 ar
     8     4    13 ar
     9     5     6 ar
    10     5    41 1
    11     6     7 ar
    12     6    11 ar
    13     7     8 ar
    14     7    42 1
    15     8     9 ar
    16     8    14 1
    17     9    10 ar
    18     9    43 1
    19    10    11 ar
    20    10    44 1
    21    11    12 ar
    22    12    13 ar
    23    12    45 1
    24    13    46 1
    25    14    15 1
    26    14    47 1
    27    14    48 1
    28    15    16 1
    29    15    19 1
    30    16    17 ar
    31    16    27 ar
    32    17    18 1
    33    17    24 ar
    34    18    19 ar
    35    18    20 ar
    36    19    23 ar
    37    20    21 ar
    38    20    49 1
    39    21    22 ar
    40    21    50 1
    41    22    23 ar
    42    22    28 1
    43    23    51 1
    44    24    25 ar
    45    24    52 1
    46    25    26 ar
    47    25    53 1
    48    26    27 ar
    49    26    54 1
    50    27    55 1
    51    28    29 1
    52    29    30 1
    53    29    34 1
    54    29    56 1
    55    30    31 1
    56    30    57 1
    57    30    58 1
    58    31    32 1
    59    31    59 1
    60    31    60 1
    61    32    33 1
    62    32    35 1
    63    33    34 1
    64    33    61 1
    65    33    62 1
    66    34    63 1
    67    34    64 1
    68    35    36 2
    69    35    37 1
    70    36    65 1
    71    37    66 1
    72    37    67 1
    73    37    68 1
    74    69     3 1
@<TRIPOS>SUBSTRUCTURE
     1 806         1 TEMP              0 ****  ****    0 ROOT
