@<TRIPOS>MOLECULE
808
   47    49     1     0     0
SMALL
bcc


@<TRIPOS>ATOM
      1 C1         -0.5250    1.3000    0.5170 c3        1 808      0.113500
      2 N3         -0.3810    0.8560   -0.9090 n4        1 808     -0.716900
      3 C12         4.8670    2.0660    5.8480 cc        1 808     -0.247300
      4 C18         0.7300    2.0700    1.0160 c3        1 808     -0.044100
      5 C21         1.4300    1.1110    1.9160 ca        1 808     -0.118300
      6 O21         5.1190    2.6510    3.6550 os        1 808     -0.349800
      7 C22         2.6870    1.2320    2.4790 ca        1 808     -0.088000
      8 C24         3.1470    0.2140    3.3350 ca        1 808     -0.060300
      9 C25         4.5110    0.3020    3.9340 c3        1 808     -0.078400
     10 C28         4.8010    1.6130    4.5420 cd        1 808      0.271000
     11 C35         5.3770    3.7710    4.4520 cd        1 808      0.138000
     12 C36         5.7280    5.0250    3.6970 c3        1 808      0.632600
     13 F37         6.9130    4.9580    3.0100 f         1 808     -0.224300
     14 F38         4.8010    5.3750    2.7440 f         1 808     -0.224300
     15 F39         5.8430    6.1330    4.4970 f         1 808     -0.224300
     16 C40         5.2390    3.4610    5.7900 cc        1 808     -0.161300
     17 C42         2.3400   -0.8960    3.6010 ca        1 808     -0.108000
     18 C44         1.0680   -1.0200    3.0250 ca        1 808     -0.092000
     19 C46         0.6190   -0.0160    2.1850 ca        1 808     -0.119300
     20 C47        -0.6910    0.0900    1.4830 c3        1 808     -0.055100
     21 S50        -1.9990    0.3260   -1.6750 s6        1 808      1.356900
     22 O52        -2.0800   -1.0020   -1.3000 o         1 808     -0.553300
     23 O53        -2.8980    1.2690   -1.2160 o         1 808     -0.553300
     24 C54        -1.5810    0.5590   -3.2960 c3        1 808     -0.320900
     25 C55        -0.4180   -0.2940   -3.7590 c3        1 808     -0.100100
     26 C57        -2.8150    0.2360   -4.1310 c3        1 808     -0.100100
     27 H1         -1.4330    1.9710    0.5540 hx        1 808      0.122700
     28 HN3         0.0500    1.6200   -1.4290 hn        1 808      0.455300
     29 H18         0.3890    2.9710    1.5940 hc        1 808      0.085700
     30 H18A        1.3900    2.4300    0.1890 hc        1 808      0.085700
     31 H22         3.3220    2.1110    2.2780 ha        1 808      0.165000
     32 H25         5.2700    0.0970    3.1240 hc        1 808      0.086200
     33 H25A        4.6400   -0.4850    4.7280 hc        1 808      0.086200
     34 H40         5.3810    4.1250    6.6410 ha        1 808      0.186000
     35 H42         2.7010   -1.6890    4.2750 ha        1 808      0.152000
     36 H44         0.4430   -1.8980    3.2470 ha        1 808      0.152000
     37 H47        -1.5080    0.3330    2.2150 hc        1 808      0.093200
     38 H47A       -0.9710   -0.8630    0.9650 hc        1 808      0.093200
     39 H54        -1.3270    1.6370   -3.5260 h1        1 808      0.148700
     40 H55         0.5560    0.1090   -3.3900 hc        1 808      0.079533
     41 H55A       -0.5430   -1.3530   -3.4180 hc        1 808      0.079533
     42 H55B       -0.3720   -0.3030   -4.8780 hc        1 808      0.079533
     43 H57        -3.0710   -0.8500   -4.0540 hc        1 808      0.079533
     44 H57A       -2.6130    0.4640   -5.2080 hc        1 808      0.079533
     45 H57B       -3.6860    0.8590   -3.8070 hc        1 808      0.079533
     46 H32         0.2820    0.0770   -0.9200 hn        1 808      0.455300
     47 H12         4.6810    1.4980    6.7570 ha        1 808      0.178000
@<TRIPOS>BOND
     1    1    2 1   
     2    1    4 1   
     3    1   20 1   
     4    1   27 1   
     5    2   21 1   
     6    2   28 1   
     7    2   46 1   
     8    3   10 2   
     9    3   16 1   
    10    3   47 1   
    11    4    5 1   
    12    4   29 1   
    13    4   30 1   
    14    5    7 ar  
    15    5   19 ar  
    16    6   10 1   
    17    6   11 1   
    18    7    8 ar  
    19    7   31 1   
    20    8    9 1   
    21    8   17 ar  
    22    9   10 1   
    23    9   32 1   
    24    9   33 1   
    25   11   12 1   
    26   11   16 2   
    27   12   13 1   
    28   12   14 1   
    29   12   15 1   
    30   16   34 1   
    31   17   18 ar  
    32   17   35 1   
    33   18   19 ar  
    34   18   36 1   
    35   19   20 1   
    36   20   37 1   
    37   20   38 1   
    38   21   22 2   
    39   21   23 2   
    40   21   24 1   
    41   24   25 1   
    42   24   26 1   
    43   24   39 1   
    44   25   40 1   
    45   25   41 1   
    46   25   42 1   
    47   26   43 1   
    48   26   44 1   
    49   26   45 1   
@<TRIPOS>SUBSTRUCTURE
     1 808         1 TEMP              0 ****  ****    0 ROOT
