@<TRIPOS>MOLECULE
809
   40    43     1     0     0
SMALL
bcc


@<TRIPOS>ATOM
      1 O1           0.0000     0.0000     0.0000 o          1 809      -0.610500
      2 C5           1.2150     0.0000     0.0000 c          1 809       0.640100
      3 N1           1.9990     0.0000     1.0920 ns         1 809      -0.169500
      4 C6           3.3010    -0.0000     0.7500 c          1 809       0.647100
      5 O2           4.2380    -0.0020     1.5240 o          1 809      -0.612500
      6 C3           3.3990    -0.0000    -0.7210 ca         1 809      -0.174600
      7 C4           2.0750    -0.0050    -1.1960 ca         1 809      -0.106600
      8 C13          1.8330    -0.0110    -2.5760 ca         1 809      -0.024800
      9 C15          0.6570    -0.0140    -3.3660 cc         1 809      -0.134400
     10 C17         -0.7580    -0.0100    -2.8470 c3         1 809       0.038800
     11 C19         -1.1930     1.4280    -2.5610 c3         1 809       0.231400
     12 O3          -2.5340     1.4320    -2.0700 oh         1 809      -0.589800
     13 C16          1.0260    -0.0190    -4.6590 cd         1 809      -0.244100
     14 N2           2.3900    -0.0200    -4.7500 na         1 809       0.401600
     15 C18          3.1610    -0.0250    -5.9960 c3         1 809      -0.005400
     16 C14          2.9230    -0.0150    -3.4780 ca         1 809      -0.208200
     17 C1           4.2230    -0.0130    -2.9980 ca         1 809      -0.075000
     18 C2           4.4680     0.0000    -1.6260 cp         1 809       0.043000
     19 C7           5.8610    -0.0010    -1.1230 cp         1 809      -0.040000
     20 C12          6.6930     1.0920    -1.3650 ca         1 809      -0.079000
     21 C8           6.3450    -1.0930    -0.4010 ca         1 809       0.002400
     22 Cl1          5.3160    -2.4550    -0.0890 cl         1 809      -0.021400
     23 C9           7.6460    -1.0870     0.0640 ca         1 809      -0.096000
     24 C10          8.4670    -0.0020    -0.1830 ca         1 809      -0.085000
     25 C11          7.9900     1.0850    -0.8950 ca         1 809      -0.104000
     26 HN1          1.6610     0.0010     2.0340 hn         1 809       0.200500
     27 H17         -0.8100    -0.5920    -1.9350 hc         1 809       0.038200
     28 H17A        -1.4160    -0.4450    -3.5900 hc         1 809       0.038200
     29 H19         -1.1410     2.0100    -3.4730 h1         1 809      -0.017300
     30 H19A        -0.5360     1.8630    -1.8180 h1         1 809      -0.017300
     31 HO3         -2.8260     2.3220    -1.9590 ho         1 809       0.385000
     32 H16          0.3450    -0.0220    -5.5010 h4         1 809       0.147000
     33 H18          2.4820    -0.0280    -6.8400 h1         1 809       0.021033
     34 H18A         3.7840     0.8600    -6.0380 h1         1 809       0.021033
     35 H18B         3.7850    -0.9090    -6.0310 h1         1 809       0.021033
     36 H1           5.0540    -0.0320    -3.6940 ha         1 809       0.112000
     37 H12          6.3220     1.9440    -1.9220 ha         1 809       0.107000
     38 H9           8.0240    -1.9340     0.6230 ha         1 809       0.115000
     39 H10          9.4860    -0.0010     0.1830 ha         1 809       0.104000
     40 H11          8.6370     1.9330    -1.0840 ha         1 809       0.104000
@<TRIPOS>BOND
     1     1     2 2   
     2     2     3 1   
     3     2     7 1   
     4     3     4 1   
     5     3    26 1   
     6     4     5 2   
     7     4     6 1   
     8     6     7 ar  
     9     6    18 ar  
    10     7     8 ar  
    11     8     9 1   
    12     8    16 ar  
    13     9    10 1   
    14     9    13 2   
    15    10    11 1   
    16    10    27 1   
    17    10    28 1   
    18    11    12 1   
    19    11    29 1   
    20    11    30 1   
    21    12    31 1   
    22    13    14 1   
    23    13    32 1   
    24    14    15 1   
    25    14    16 1   
    26    15    33 1   
    27    15    34 1   
    28    15    35 1   
    29    16    17 ar  
    30    17    18 ar  
    31    17    36 1   
    32    18    19 1   
    33    19    20 ar  
    34    19    21 ar  
    35    20    25 ar  
    36    20    37 1   
    37    21    22 1   
    38    21    23 ar  
    39    23    24 ar  
    40    23    38 1   
    41    24    25 ar  
    42    24    39 1   
    43    25    40 1   
@<TRIPOS>SUBSTRUCTURE
     1 809         1 TEMP              0 ****  ****    0 ROOT
