@<TRIPOS>MOLECULE
molecule
   40    43     1     0     0
SMALL
bcc


@<TRIPOS>ATOM
      1 O1           0.0000     0.0000     0.0000 o          1 809      -0.574500
      2 C5           1.2150     0.0000     0.0000 c          1 809       0.720100
      3 N1           1.9990     0.0000     1.0920 ns         1 809      -0.584500
      4 C6           3.3010    -0.0000     0.7500 c          1 809       0.724100
      5 O2           4.2380    -0.0020     1.5240 o          1 809      -0.571500
      6 C3           3.3990    -0.0000    -0.7210 ca         1 809      -0.153600
      7 C4           2.0750    -0.0050    -1.1960 ca         1 809      -0.108600
      8 C13          1.8330    -0.0110    -2.5760 ca         1 809      -0.031800
      9 C15          0.6570    -0.0140    -3.3660 cc         1 809      -0.146400
     10 C17         -0.7580    -0.0100    -2.8470 c3         1 809      -0.011200
     11 C19         -1.1930     1.4280    -2.5610 c3         1 809       0.151400
     12 O3          -2.5340     1.4320    -2.0700 oh         1 809      -0.608800
     13 C16          1.0260    -0.0190    -4.6590 cd         1 809      -0.085100
     14 N2           2.3900    -0.0200    -4.7500 na         1 809      -0.067400
     15 C18          3.1610    -0.0250    -5.9960 c3         1 809       0.039600
     16 C14          2.9230    -0.0150    -3.4780 ca         1 809      -0.033200
     17 C1           4.2230    -0.0130    -2.9980 ca         1 809      -0.110000
     18 C2           4.4680     0.0000    -1.6260 cp         1 809       0.033000
     19 C7           5.8610    -0.0010    -1.1230 cp         1 809      -0.042000
     20 C12          6.6930     1.0920    -1.3650 ca         1 809      -0.103000
     21 C8           6.3450    -1.0930    -0.4010 ca         1 809       0.064400
     22 Cl1          5.3160    -2.4550    -0.0890 cl         1 809      -0.099400
     23 C9           7.6460    -1.0870     0.0640 ca         1 809      -0.119000
     24 C10          8.4670    -0.0020    -0.1830 ca         1 809      -0.112000
     25 C11          7.9900     1.0850    -0.8950 ca         1 809      -0.131000
     26 HN1          1.6610     0.0010     2.0340 hn         1 809       0.355500
     27 H17         -0.8100    -0.5920    -1.9350 hc         1 809       0.069700
     28 H17A        -1.4160    -0.4450    -3.5900 hc         1 809       0.069700
     29 H19         -1.1410     2.0100    -3.4730 h1         1 809       0.018700
     30 H19A        -0.5360     1.8630    -1.8180 h1         1 809       0.018700
     31 HO3         -2.8260     2.3220    -1.9590 ho         1 809       0.399000
     32 H16          0.3450    -0.0220    -5.5010 h4         1 809       0.174000
     33 H18          2.4820    -0.0280    -6.8400 h1         1 809       0.053033
     34 H18A         3.7840     0.8600    -6.0380 h1         1 809       0.053033
     35 H18B         3.7850    -0.9090    -6.0310 h1         1 809       0.053033
     36 H1           5.0540    -0.0320    -3.6940 ha         1 809       0.141000
     37 H12          6.3220     1.9440    -1.9220 ha         1 809       0.138000
     38 H9           8.0240    -1.9340     0.6230 ha         1 809       0.146000
     39 H10          9.4860    -0.0010     0.1830 ha         1 809       0.136000
     40 H11          8.6370     1.9330    -1.0840 ha         1 809       0.134000
@<TRIPOS>BOND
     1     1     2 2
     2     2     3 1
     3     2     7 1
     4     3     4 1
     5     4     5 2
     6     4     6 1
     7     6     7 ar
     8     6    18 ar
     9     7     8 ar
    10     8     9 1
    11     8    16 ar
    12     9    10 1
    13     9    13 2
    14    10    11 1
    15    11    12 1
    16    13    14 1
    17    14    15 1
    18    14    16 1
    19    16    17 ar
    20    17    18 ar
    21    18    19 1
    22    19    20 ar
    23    19    21 ar
    24    20    25 ar
    25    21    22 1
    26    21    23 ar
    27    23    24 ar
    28    24    25 ar
    29     3    26 1
    30    10    27 1
    31    10    28 1
    32    11    29 1
    33    11    30 1
    34    12    31 1
    35    13    32 1
    36    15    33 1
    37    15    34 1
    38    15    35 1
    39    17    36 1
    40    20    37 1
    41    23    38 1
    42    24    39 1
    43    25    40 1
@<TRIPOS>SUBSTRUCTURE
     1 809         1 TEMP              0 ****  ****    0 ROOT
