@<TRIPOS>MOLECULE
80A
   44    46     1     0     0
SMALL
bcc


@<TRIPOS>ATOM
      1 C1           0.0000     0.0000     0.0000 ca         1 80A      -0.036500
      2 C2           1.3810     0.0000     0.0000 ca         1 80A      -0.181000
      3 C3           2.0740     0.0000     1.2020 ca         1 80A       0.159100
      4 C4           1.3770     0.0010     2.4020 ca         1 80A      -0.181000
      5 C5          -0.0050     0.0020     2.3960 ca         1 80A      -0.036500
      6 C6          -0.6930     0.0020     1.1970 ca         1 80A      -0.165300
      7 C7          -2.1990     0.0030     1.1940 c3         1 80A       0.315700
      8 O8          -2.6790    -0.7680     2.2980 oh         1 80A      -0.583800
      9 C9          -2.7000     1.4190     1.3170 ca         1 80A      -0.081300
     10 C14         -2.7390     2.0550     2.5480 ca         1 80A      -0.203300
     11 C13         -3.2040     3.3540     2.6220 ca         1 80A       0.400700
     12 N12         -3.6100     3.9880     1.5390 nb         1 80A      -0.582000
     13 C11         -3.5880     3.4140     0.3510 ca         1 80A       0.400700
     14 C10         -3.1290     2.1190     0.1990 ca         1 80A      -0.203300
     15 O15          3.4330    -0.0020     1.2040 os         1 80A      -0.307900
     16 C16          4.0790    -0.0010     2.4790 c3         1 80A       0.199400
     17 C17          5.5960    -0.0040     2.2820 c3         1 80A       0.150800
     18 N23          6.0080     1.2500     1.6370 n3         1 80A      -0.547600
     19 C19          7.4760     1.3920     1.6440 c3         1 80A       0.150300
     20 C20          7.9260     1.5670     0.1780 c3         1 80A      -0.037400
     21 C21          6.6410     2.0840    -0.5230 c3         1 80A      -0.037400
     22 C22          5.5370     1.3060     0.2370 c3         1 80A       0.150300
     23 H1          -0.5410    -0.0000    -0.9380 ha         1 80A       0.109000
     24 H2           1.9230    -0.0010    -0.9380 ha         1 80A       0.119000
     25 H4           1.9150     0.0010     3.3420 ha         1 80A       0.119000
     26 H5          -0.5490     0.0030     3.3320 ha         1 80A       0.109000
     27 H7          -2.5590    -0.4280     0.2680 h1         1 80A       0.005700
     28 HO8         -3.2190    -1.4720     1.9780 ho         1 80A       0.393000
     29 H14         -2.4070     1.5400     3.4410 ha         1 80A       0.118000
     30 H13         -3.2370     3.8580     3.5800 h4         1 80A      -0.021400
     31 H11         -3.9270     3.9670    -0.5170 h4         1 80A      -0.021400
     32 H10         -3.1130     1.6540    -0.7790 ha         1 80A       0.118000
     33 H16          3.7860    -0.8850     3.0320 h1         1 80A       0.009200
     34 H16A         3.7880     0.8840     3.0310 h1         1 80A       0.009200
     35 H17          6.0850    -0.0920     3.2440 h1         1 80A       0.017200
     36 H17A         5.8780    -0.8410     1.6550 h1         1 80A       0.017200
     37 H19          7.9280     0.5010     2.0630 h1         1 80A       0.019450
     38 H19A         7.7580     2.2630     2.2220 h1         1 80A       0.019450
     39 H20          8.2350     0.6180    -0.2420 hc         1 80A       0.019950
     40 H20A         8.7200     2.3020     0.1090 hc         1 80A       0.019950
     41 H21          6.5270     3.1520    -0.3820 hc         1 80A       0.019950
     42 H21A         6.6440     1.8220    -1.5740 hc         1 80A       0.019950
     43 H22          5.4380     0.3050    -0.1660 h1         1 80A       0.019450
     44 H22A         4.5950     1.8380     0.1780 h1         1 80A       0.019450
@<TRIPOS>BOND
     1     1     2 ar  
     2     1     6 ar  
     3     1    23 1   
     4     2     3 ar  
     5     2    24 1   
     6     3     4 ar  
     7     3    15 1   
     8     4     5 ar  
     9     4    25 1   
    10     5     6 ar  
    11     5    26 1   
    12     6     7 1   
    13     7     8 1   
    14     7     9 1   
    15     7    27 1   
    16     8    28 1   
    17     9    10 ar  
    18     9    14 ar  
    19    10    11 ar  
    20    10    29 1   
    21    11    12 ar  
    22    11    30 1   
    23    12    13 ar  
    24    13    14 ar  
    25    13    31 1   
    26    14    32 1   
    27    15    16 1   
    28    16    17 1   
    29    16    33 1   
    30    16    34 1   
    31    17    18 1   
    32    17    35 1   
    33    17    36 1   
    34    18    19 1   
    35    18    22 1   
    36    19    20 1   
    37    19    37 1   
    38    19    38 1   
    39    20    21 1   
    40    20    39 1   
    41    20    40 1   
    42    21    22 1   
    43    21    41 1   
    44    21    42 1   
    45    22    43 1   
    46    22    44 1   
@<TRIPOS>SUBSTRUCTURE
     1 80A         1 TEMP              0 ****  ****    0 ROOT
