@<TRIPOS>MOLECULE
80G
   25    26     1     0     0
SMALL
bcc


@<TRIPOS>ATOM
      1 C1           0.0000     0.0000     0.0000 ca         1 80G       0.091000
      2 C2           1.3960     0.0000     0.0000 ca         1 80G      -0.091500
      3 C3           2.0820     0.0000     1.1970 ca         1 80G      -0.056500
      4 C4           1.3900    -0.0010     2.3940 ca         1 80G      -0.234300
      5 C5           0.0070    -0.0010     2.4020 ca         1 80G      -0.056500
      6 C6          -0.6920    -0.0010     1.2120 ca         1 80G      -0.091500
      7 C7          -0.7430     0.0060    -1.2780 cc         1 80G      -0.008100
      8 C9          -2.3680     0.0180    -3.1900 cc         1 80G       0.056900
      9 C10         -1.0810     0.0100    -3.5490 cd         1 80G      -0.136000
     10 C11         -0.1810     0.0010    -2.5040 cd         1 80G      -0.074000
     11 C12          2.1470    -0.0010     3.6990 c3         1 80G       0.041100
     12 N13          2.3930     1.3840     4.1220 nz         1 80G       0.072400
     13 S8          -2.4950     0.0130    -1.4360 ss         1 80G      -0.239800
     14 H2           1.9390     0.0010    -0.9370 ha         1 80G       0.135500
     15 H3           3.1650     0.0000     1.1990 ha         1 80G       0.107000
     16 H5          -0.5290    -0.0010     3.3440 ha         1 80G       0.107000
     17 H6          -1.7750    -0.0010     1.2180 ha         1 80G       0.135500
     18 H9          -3.2070     0.0240    -3.8750 h4         1 80G       0.159000
     19 H10         -0.7670     0.0090    -4.5860 ha         1 80G       0.134000
     20 H11          0.8910    -0.0060    -2.6560 ha         1 80G       0.122000
     21 H12          3.0940    -0.5120     3.5670 hx         1 80G       0.080700
     22 H12A         1.5640    -0.5120     4.4550 hx         1 80G       0.080700
     23 HN13         1.5180     1.8560     4.2420 hn         1 80G       0.222133
     24 HN1A         2.9340     1.8550     3.4250 hn         1 80G       0.222133
     25 H133         2.8930     1.3840     4.9890 hn         1 80G       0.222133
@<TRIPOS>BOND
     1     1     2 ar  
     2     1     6 ar  
     3     1     7 1   
     4     2     3 ar  
     5     2    14 1   
     6     3     4 ar  
     7     3    15 1   
     8     4     5 ar  
     9     4    11 1   
    10     5     6 ar  
    11     5    16 1   
    12     6    17 1   
    13     7    10 2   
    14     7    13 1   
    15     8     9 2   
    16     8    13 1   
    17     8    18 1   
    18     9    10 1   
    19     9    19 1   
    20    10    20 1   
    21    11    12 1   
    22    11    21 1   
    23    11    22 1   
    24    12    23 1   
    25    12    24 1   
    26    12    25 1   
@<TRIPOS>SUBSTRUCTURE
     1 80G         1 TEMP              0 ****  ****    0 ROOT
