@<TRIPOS>MOLECULE
molecule
   60    61     1     0     0
SMALL
bcc


@<TRIPOS>ATOM
      1 C01          0.0000     0.0000     0.0000 c3         1 80K      -0.105433
      2 C02          1.5300     0.0000     0.0000 c3         1 80K       0.178800
      3 C03          2.0410     0.0000     1.4410 c3         1 80K      -0.105433
      4 C04          2.0400    -1.2480    -0.7230 c3         1 80K      -0.105433
      5 C06          1.6510     2.3780    -0.1720 c          1 80K       0.755100
      6 C09          1.6710     4.8140    -0.2010 c3         1 80K       0.148000
      7 C10          2.2700     5.9380    -1.0490 c3         1 80K      -0.018300
      8 C12          2.5750     8.7280    -1.4800 c3         1 80K      -0.001300
      9 C13          2.2540    10.1530    -1.0260 c3         1 80K       0.192500
     10 C15          2.3580    11.3970     1.1140 ca         1 80K       0.210600
     11 C16          1.2370    12.1210     0.7290 ca         1 80K      -0.202500
     12 C17          0.7330    13.1050     1.5570 ca         1 80K      -0.081500
     13 C18          1.3450    13.3700     2.7700 ca         1 80K      -0.183000
     14 C19          2.4610    12.6520     3.1560 ca         1 80K      -0.081500
     15 C20          2.9700    11.6670     2.3330 ca         1 80K      -0.202500
     16 C21          2.8010    11.1350    -2.0300 c          1 80K       0.632100
     17 C24          2.6570    12.3370    -4.1440 c3         1 80K       0.164300
     18 C25          1.7180    12.4290    -5.3200 ca         1 80K      -0.246600
     19 C26          0.6890    13.3580    -5.3240 ca         1 80K      -0.077000
     20 C27         -0.1510    13.4080    -6.4270 ca         1 80K      -0.256300
     21 C28          0.0650    12.5370    -7.4770 ca         1 80K       0.427200
     22 C30          1.8760    11.5950    -6.4100 ca         1 80K       0.433200
     23 N08          2.0660     3.5180    -0.7580 ns         1 80K      -0.579900
     24 N14          2.8670    10.3980     0.2820 nu         1 80K      -0.801600
     25 N23          2.1250    11.3810    -3.1700 ns         1 80K      -0.588900
     26 N29          1.0550    11.6660    -7.4390 nb         1 80K      -0.689000
     27 O05          2.0140     1.1870    -0.6840 os         1 80K      -0.439900
     28 O07          0.9510     2.4250     0.8200 o          1 80K      -0.612000
     29 O22          3.8500    11.7040    -1.8120 o          1 80K      -0.579100
     30 S11          1.7830     7.5420    -0.3590 ss         1 80K      -0.306200
     31 H1          -0.3610     0.6000     0.8270 hc         1 80K       0.050033
     32 H2          -0.3610     0.4160    -0.9330 hc         1 80K       0.050033
     33 H3          -0.3610    -1.0160     0.1060 hc         1 80K       0.050033
     34 H4           1.3820     0.6000     2.0580 hc         1 80K       0.050033
     35 H5           2.0620    -1.0160     1.8170 hc         1 80K       0.050033
     36 H6           3.0410     0.4160     1.4700 hc         1 80K       0.050033
     37 H7           3.1230    -1.2480    -0.7240 hc         1 80K       0.050033
     38 H8           1.6780    -1.2470    -1.7440 hc         1 80K       0.050033
     39 H9           1.6790    -2.1330    -0.2130 hc         1 80K       0.050033
     40 H10          2.0350     4.8960     0.8160 h1         1 80K       0.068200
     41 H11          0.5910     4.8950    -0.2060 h1         1 80K       0.068200
     42 H12          3.3510     5.8560    -1.0460 h1         1 80K       0.062700
     43 H13          1.9050     5.8570    -2.0660 h1         1 80K       0.062700
     44 H14          2.2030     8.5770    -2.4860 h1         1 80K       0.071200
     45 H15          3.6480     8.5770    -1.4660 h1         1 80K       0.071200
     46 H16          1.1800    10.2740    -0.9500 h1         1 80K       0.080700
     47 H17          0.7580    11.9140    -0.2200 ha         1 80K       0.125500
     48 H18         -0.1410    13.6700     1.2570 ha         1 80K       0.126500
     49 H19          0.9480    14.1420     3.4180 ha         1 80K       0.127000
     50 H20          2.9370    12.8620     4.1060 ha         1 80K       0.126500
     51 H21          3.8450    11.1050     2.6370 ha         1 80K       0.125500
     52 H22          3.6300    12.0020    -4.4850 h1         1 80K       0.062700
     53 H23          2.7530    13.3110    -3.6810 h1         1 80K       0.062700
     54 H24          0.5440    14.0280    -4.4860 ha         1 80K       0.144000
     55 H25         -0.9660    14.1210    -6.4650 ha         1 80K       0.143000
     56 H26         -0.5870    12.5670    -8.3410 h4         1 80K       0.026100
     57 H27          2.6780    10.8660    -6.4140 h4         1 80K       0.027100
     58 H28          2.6440     3.4790    -1.5750 hn         1 80K       0.321500
     59 H29          3.6350     9.8350     0.5880 hn         1 80K       0.452800
     60 H30          1.2520    10.9240    -3.3420 hn         1 80K       0.316500
@<TRIPOS>BOND
     1    28     5 2   
     2    21    20 ar  
     3    21    26 ar  
     4     1     2 1   
     5    20    19 ar  
     6     4     2 1   
     7    26    22 ar  
     8     5    27 1   
     9     5    23 1   
    10     2    27 1   
    11     2     3 1   
    12    19    18 ar  
    13    23     6 1   
    14    22    18 ar  
    15    18    17 1   
    16     6     7 1   
    17     8    30 1   
    18     8     9 1   
    19    24     9 1   
    20    24    10 1   
    21    17    25 1   
    22    30     7 1   
    23    25    16 1   
    24     9    16 1   
    25    16    29 2   
    26    11    10 ar  
    27    11    12 ar  
    28    10    15 ar  
    29    12    13 ar  
    30    15    14 ar  
    31    13    14 ar  
    32     1    31 1   
    33     1    32 1   
    34     1    33 1   
    35     3    34 1   
    36     3    35 1   
    37     3    36 1   
    38     4    37 1   
    39     4    38 1   
    40     4    39 1   
    41     6    40 1   
    42     6    41 1   
    43     7    42 1   
    44     7    43 1   
    45     8    44 1   
    46     8    45 1   
    47     9    46 1   
    48    11    47 1   
    49    12    48 1   
    50    13    49 1   
    51    14    50 1   
    52    15    51 1   
    53    17    52 1   
    54    17    53 1   
    55    19    54 1   
    56    20    55 1   
    57    21    56 1   
    58    22    57 1   
    59    23    58 1   
    60    24    59 1   
    61    25    60 1   
@<TRIPOS>SUBSTRUCTURE
     1 80K         1 TEMP              0 ****  ****    0 ROOT
