@<TRIPOS>MOLECULE
80K
   60    61     1     0     0
SMALL
bcc


@<TRIPOS>ATOM
      1 C01          0.0000     0.0000     0.0000 c3         1 80K      -0.028767
      2 C02          1.5300     0.0000     0.0000 c3         1 80K       0.196800
      3 C03          2.0410     0.0000     1.4410 c3         1 80K      -0.028767
      4 C04          2.0400    -1.2480    -0.7230 c3         1 80K      -0.028767
      5 C06          1.6510     2.3780    -0.1720 c          1 80K       0.687100
      6 C09          1.6710     4.8140    -0.2010 c3         1 80K       0.084000
      7 C10          2.2700     5.9380    -1.0490 c3         1 80K       0.063700
      8 C12          2.5750     8.7280    -1.4800 c3         1 80K       0.074700
      9 C13          2.2540    10.1530    -1.0260 c3         1 80K       0.089500
     10 C15          2.3580    11.3970     1.1140 ca         1 80K       0.074600
     11 C16          1.2370    12.1210     0.7290 ca         1 80K      -0.186000
     12 C17          0.7330    13.1050     1.5570 ca         1 80K      -0.049000
     13 C18          1.3450    13.3700     2.7700 ca         1 80K      -0.163000
     14 C19          2.4610    12.6520     3.1560 ca         1 80K      -0.049000
     15 C20          2.9700    11.6670     2.3330 ca         1 80K      -0.186000
     16 C21          2.8010    11.1350    -2.0300 c          1 80K       0.543100
     17 C24          2.6570    12.3370    -4.1440 c3         1 80K       0.119300
     18 C25          1.7180    12.4290    -5.3200 ca         1 80K      -0.251600
     19 C26          0.6890    13.3580    -5.3240 ca         1 80K      -0.050000
     20 C27         -0.1510    13.4080    -6.4270 ca         1 80K      -0.221300
     21 C28          0.0650    12.5370    -7.4770 ca         1 80K       0.414200
     22 C30          1.8760    11.5950    -6.4100 ca         1 80K       0.420200
     23 N08          2.0660     3.5180    -0.7580 ns         1 80K      -0.186900
     24 N14          2.8670    10.3980     0.2820 nu         1 80K      -0.391600
     25 N23          2.1250    11.3810    -3.1700 ns         1 80K      -0.198900
     26 N29          1.0550    11.6660    -7.4390 nb         1 80K      -0.581000
     27 O05          2.0140     1.1870    -0.6840 os         1 80K      -0.420900
     28 O07          0.9510     2.4250     0.8200 o          1 80K      -0.657000
     29 O22          3.8500    11.7040    -1.8120 o          1 80K      -0.622100
     30 S11          1.7830     7.5420    -0.3590 ss         1 80K      -0.371200
     31 H1          -0.3610     0.6000     0.8270 hc         1 80K       0.019256
     32 H2          -0.3610     0.4160    -0.9330 hc         1 80K       0.019256
     33 H3          -0.3610    -1.0160     0.1060 hc         1 80K       0.019256
     34 H4           1.3820     0.6000     2.0580 hc         1 80K       0.019256
     35 H5           2.0620    -1.0160     1.8170 hc         1 80K       0.019256
     36 H6           3.0410     0.4160     1.4700 hc         1 80K       0.019256
     37 H7           3.1230    -1.2480    -0.7240 hc         1 80K       0.019256
     38 H8           1.6780    -1.2470    -1.7440 hc         1 80K       0.019256
     39 H9           1.6790    -2.1330    -0.2130 hc         1 80K       0.019256
     40 H10          2.0350     4.8960     0.8160 h1         1 80K       0.041200
     41 H11          0.5910     4.8950    -0.2060 h1         1 80K       0.041200
     42 H12          3.3510     5.8560    -1.0460 h1         1 80K       0.036700
     43 H13          1.9050     5.8570    -2.0660 h1         1 80K       0.036700
     44 H14          2.2030     8.5770    -2.4860 h1         1 80K       0.043700
     45 H15          3.6480     8.5770    -1.4660 h1         1 80K       0.043700
     46 H16          1.1800    10.2740    -0.9500 h1         1 80K       0.059700
     47 H17          0.7580    11.9140    -0.2200 ha         1 80K       0.106500
     48 H18         -0.1410    13.6700     1.2570 ha         1 80K       0.096000
     49 H19          0.9480    14.1420     3.4180 ha         1 80K       0.102000
     50 H20          2.9370    12.8620     4.1060 ha         1 80K       0.096000
     51 H21          3.8450    11.1050     2.6370 ha         1 80K       0.106500
     52 H22          3.6300    12.0020    -4.4850 h1         1 80K       0.032700
     53 H23          2.7530    13.3110    -3.6810 h1         1 80K       0.032700
     54 H24          0.5440    14.0280    -4.4860 ha         1 80K       0.115000
     55 H25         -0.9660    14.1210    -6.4650 ha         1 80K       0.117000
     56 H26         -0.5870    12.5670    -8.3410 h4         1 80K      -0.017900
     57 H27          2.6780    10.8660    -6.4140 h4         1 80K      -0.016900
     58 H28          2.6440     3.4790    -1.5750 hn         1 80K       0.175500
     59 H29          3.6350     9.8350     0.5880 hn         1 80K       0.304800
     60 H30          1.2520    10.9240    -3.3420 hn         1 80K       0.177500
@<TRIPOS>BOND
     1     1     2 1   
     2     1    31 1   
     3     1    32 1   
     4     1    33 1   
     5     2     3 1   
     6     2     4 1   
     7     2    27 1   
     8     3    34 1   
     9     3    35 1   
    10     3    36 1   
    11     4    37 1   
    12     4    38 1   
    13     4    39 1   
    14     5    23 1   
    15     5    27 1   
    16     5    28 2   
    17     6     7 1   
    18     6    23 1   
    19     6    40 1   
    20     6    41 1   
    21     7    30 1   
    22     7    42 1   
    23     7    43 1   
    24     8     9 1   
    25     8    30 1   
    26     8    44 1   
    27     8    45 1   
    28     9    16 1   
    29     9    24 1   
    30     9    46 1   
    31    10    11 ar  
    32    10    15 ar  
    33    10    24 1   
    34    11    12 ar  
    35    11    47 1   
    36    12    13 ar  
    37    12    48 1   
    38    13    14 ar  
    39    13    49 1   
    40    14    15 ar  
    41    14    50 1   
    42    15    51 1   
    43    16    25 1   
    44    16    29 2   
    45    17    18 1   
    46    17    25 1   
    47    17    52 1   
    48    17    53 1   
    49    18    19 ar  
    50    18    22 ar  
    51    19    20 ar  
    52    19    54 1   
    53    20    21 ar  
    54    20    55 1   
    55    21    26 ar  
    56    21    56 1   
    57    22    26 ar  
    58    22    57 1   
    59    23    58 1   
    60    24    59 1   
    61    25    60 1   
@<TRIPOS>SUBSTRUCTURE
     1 80K         1 TEMP              0 ****  ****    0 ROOT
