@<TRIPOS>MOLECULE
molecule
   40    42     1     0     0
SMALL
bcc


@<TRIPOS>ATOM
      1 C4           0.0000     0.0000     0.0000 ca         1 80L      -0.295000
      2 C5           1.3890    -0.0120     2.4030 ca         1 80L       0.014000
      3 C6           0.0450    -0.4970    -4.8120 ca         1 80L      -0.025400
      4 C7          -0.3430    -1.2240    -3.6850 ca         1 80L       0.037600
      5 C8           1.4000    -0.1700    -2.4150 ca         1 80L       0.155600
      6 C10          1.3880     0.0000     0.0000 ca         1 80L       0.268600
      7 C13         -1.6840    -1.7780    -5.3660 c          1 80L       0.807500
      8 C15         -4.3280    -0.0360     0.2240 c3         1 80L      -0.201400
      9 C1           1.1090     0.3890    -4.7330 ca         1 80L      -0.107000
     10 C2           1.7840     0.5510    -3.5400 ca         1 80L      -0.166000
     11 C3           0.3360    -1.0580    -2.4870 ca         1 80L      -0.167000
     12 C9          -0.6910    -0.0000     1.2040 ca         1 80L       0.294600
     13 C11          0.0060    -0.0050     2.4040 ca         1 80L      -0.292200
     14 C12          2.0810     0.0000     1.2070 ca         1 80L      -0.118600
     15 C14         -5.0850    -0.1020    -1.0770 c          1 80L       0.894600
     16 C16         -2.8250    -0.0570    -0.0590 c3         1 80L       0.227800
     17 N17         -0.8150    -0.8690    -5.8450 ns         1 80L      -0.452100
     18 N18         -1.4210    -2.0170    -4.0670 ns         1 80L      -0.429100
     19 N19          2.0880    -0.0010    -1.2090 nu         1 80L      -0.667000
     20 N20         -2.0890     0.0070     1.2060 nu         1 80L      -0.779600
     21 N21         -0.7310    -0.0170     3.6870 no         1 80L       0.309200
     22 O22         -0.3220    -0.6870     4.6190 o          1 80L      -0.226000
     23 O23         -2.5710    -2.3080    -6.0100 o          1 80L      -0.654500
     24 O24         -4.4840    -0.1590    -2.1240 o          1 80L      -0.844300
     25 O25         -1.7480     0.6410     3.8120 o          1 80L      -0.226000
     26 O26         -6.4270    -0.0950    -1.0750 o          1 80L      -0.844300
     27 Cl1          3.8170     0.0010     1.2090 cl         1 80L      -0.127400
     28 H1          -0.5430     0.0020    -0.9380 ha         1 80L       0.189000
     29 H2           1.9310    -0.0130     3.3410 ha         1 80L       0.158000
     30 H3          -4.5920    -0.8880     0.8390 hc         1 80L       0.042700
     31 H4          -4.5850     0.8790     0.7450 hc         1 80L       0.042700
     32 H5           1.4110     0.9530    -5.6080 ha         1 80L       0.131000
     33 H6           2.6150     1.2430    -3.4800 ha         1 80L       0.133000
     34 H7           0.0370    -1.6200    -1.6110 ha         1 80L       0.159000
     35 H8          -2.5690    -0.9720    -0.5800 h1         1 80L       0.052700
     36 H9          -2.5620     0.7950    -0.6740 h1         1 80L       0.052700
     37 H10         -0.7930    -0.5170    -6.7820 hn         1 80L       0.354500
     38 H11         -1.9200    -2.6520    -3.4760 hn         1 80L       0.374500
     39 H12          3.0830     0.0990    -1.2100 hn         1 80L       0.457800
     40 H13         -2.5870     0.0470     2.0730 hn         1 80L       0.465800
@<TRIPOS>BOND
     1    23     7 2   
     2     7    17 1   
     3     7    18 1   
     4    17     3 1   
     5    18     4 1   
     6     3     4 ar  
     7     3     9 ar  
     8     4    11 ar  
     9     9    10 ar  
    10    11     5 ar  
    11    10     5 ar  
    12     5    19 1   
    13    19     6 1   
    14    24    15 1   
    15     6     1 ar  
    16     6    14 ar  
    17    27    14 1   
    18    15    26 1   
    19    15     8 1   
    20     1    12 ar  
    21    14     2 ar  
    22     8    16 1   
    23    12    20 1   
    24    12    13 ar  
    25    16    20 1   
    26     2    13 ar  
    27    13    21 1   
    28    21    25 1   
    29    21    22 1   
    30     1    28 1   
    31     2    29 1   
    32     8    30 1   
    33     8    31 1   
    34     9    32 1   
    35    10    33 1   
    36    11    34 1   
    37    16    35 1   
    38    16    36 1   
    39    17    37 1   
    40    18    38 1   
    41    19    39 1   
    42    20    40 1   
@<TRIPOS>SUBSTRUCTURE
     1 80L         1 TEMP              0 ****  ****    0 ROOT
