@<TRIPOS>MOLECULE
80L
   40    42     1     0     0
SMALL
bcc


@<TRIPOS>ATOM
      1 C4           0.0000     0.0000     0.0000 ca         1 80L      -0.312000
      2 C5           1.3890    -0.0120     2.4030 ca         1 80L       0.078000
      3 C6           0.0450    -0.4970    -4.8120 ca         1 80L      -0.184400
      4 C7          -0.3430    -1.2240    -3.6850 ca         1 80L      -0.119400
      5 C8           1.4000    -0.1700    -2.4150 ca         1 80L       0.005600
      6 C10          1.3880     0.0000     0.0000 ca         1 80L       0.131600
      7 C13         -1.6840    -1.7780    -5.3660 c          1 80L       0.561500
      8 C15         -4.3280    -0.0360     0.2240 c3         1 80L      -0.145400
      9 C1           1.1090     0.3890    -4.7330 ca         1 80L      -0.061000
     10 C2           1.7840     0.5510    -3.5400 ca         1 80L      -0.142000
     11 C3           0.3360    -1.0580    -2.4870 ca         1 80L      -0.133000
     12 C9          -0.6910    -0.0000     1.2040 ca         1 80L       0.185600
     13 C11          0.0060    -0.0050     2.4040 ca         1 80L      -0.594200
     14 C12          2.0810     0.0000     1.2070 ca         1 80L      -0.194600
     15 C14         -5.0850    -0.1020    -1.0770 c          1 80L       0.984600
     16 C16         -2.8250    -0.0570    -0.0590 c3         1 80L       0.155800
     17 N17         -0.8150    -0.8690    -5.8450 ns         1 80L       0.017900
     18 N18         -1.4210    -2.0170    -4.0670 ns         1 80L       0.049900
     19 N19          2.0880    -0.0010    -1.2090 nu         1 80L      -0.214000
     20 N20         -2.0890     0.0070     1.2060 nu         1 80L      -0.386600
     21 N21         -0.7310    -0.0170     3.6870 no         1 80L       1.073200
     22 O22         -0.3220    -0.6870     4.6190 o          1 80L      -0.470000
     23 O23         -2.5710    -2.3080    -6.0100 o          1 80L      -0.710500
     24 O24         -4.4840    -0.1590    -2.1240 o          1 80L      -0.894800
     25 O25         -1.7480     0.6410     3.8120 o          1 80L      -0.470000
     26 O26         -6.4270    -0.0950    -1.0750 o          1 80L      -0.894800
     27 Cl1          3.8170     0.0010     1.2090 cl         1 80L      -0.048400
     28 H1          -0.5430     0.0020    -0.9380 ha         1 80L       0.178000
     29 H2           1.9310    -0.0130     3.3410 ha         1 80L       0.117000
     30 H3          -4.5920    -0.8880     0.8390 hc         1 80L       0.016200
     31 H4          -4.5850     0.8790     0.7450 hc         1 80L       0.016200
     32 H5           1.4110     0.9530    -5.6080 ha         1 80L       0.099000
     33 H6           2.6150     1.2430    -3.4800 ha         1 80L       0.106000
     34 H7           0.0370    -1.6200    -1.6110 ha         1 80L       0.139000
     35 H8          -2.5690    -0.9720    -0.5800 h1         1 80L       0.028200
     36 H9          -2.5620     0.7950    -0.6740 h1         1 80L       0.028200
     37 H10         -0.7930    -0.5170    -6.7820 hn         1 80L       0.184500
     38 H11         -1.9200    -2.6520    -3.4760 hn         1 80L       0.202500
     39 H12          3.0830     0.0990    -1.2100 hn         1 80L       0.290800
     40 H13         -2.5870     0.0470     2.0730 hn         1 80L       0.326800
@<TRIPOS>BOND
     1     1     6 ar  
     2     1    12 ar  
     3     1    28 1   
     4     2    13 ar  
     5     2    14 ar  
     6     2    29 1   
     7     3     4 ar  
     8     3     9 ar  
     9     3    17 1   
    10     4    11 ar  
    11     4    18 1   
    12     5    10 ar  
    13     5    11 ar  
    14     5    19 1   
    15     6    14 ar  
    16     6    19 1   
    17     7    17 1   
    18     7    18 1   
    19     7    23 2   
    20     8    15 1   
    21     8    16 1   
    22     8    30 1   
    23     8    31 1   
    24     9    10 ar  
    25     9    32 1   
    26    10    33 1   
    27    11    34 1   
    28    12    13 ar  
    29    12    20 1   
    30    13    21 1   
    31    14    27 1   
    32    15    24 1   
    33    15    26 1   
    34    16    20 1   
    35    16    35 1   
    36    16    36 1   
    37    17    37 1   
    38    18    38 1   
    39    19    39 1   
    40    20    40 1   
    41    21    22 1   
    42    21    25 1   
@<TRIPOS>SUBSTRUCTURE
     1 80L         1 TEMP              0 ****  ****    0 ROOT
