@<TRIPOS>MOLECULE
molecule
   51    53     1     0     0
SMALL
bcc


@<TRIPOS>ATOM
      1 C            0.0000     0.0000     0.0000 c3         1 80O       0.129700
      2 O            1.4290     0.0000     0.0000 os         1 80O      -0.330900
      3 C1           2.0460     0.0000     1.2110 ca         1 80O       0.141100
      4 C19          3.4320     0.0010     1.2840 ca         1 80O      -0.139000
      5 C5           4.0580     0.0010     2.5160 ca         1 80O      -0.021300
      6 C4           3.3030     0.0010     3.6750 ca         1 80O      -0.147000
      7 C3           1.9220    -0.0010     3.6040 ca         1 80O      -0.089000
      8 C2           1.2930     0.0050     2.3750 ca         1 80O      -0.218000
      9 C6           5.5620     0.0020     2.5960 c3         1 80O      -0.059400
     10 C7           6.0630     1.4230     2.6230 c2         1 80O       0.446900
     11 N1           7.4130     1.6750     2.6950 ns         1 80O      -0.519400
     12 C8           7.8680     2.9420     2.6130 c          1 80O       0.690700
     13 O1           7.0820     3.8690     2.5780 o          1 80O      -0.574100
     14 N            5.2240     2.4050     2.5790 n2         1 80O      -0.831100
     15 C9           9.3190     3.2020     2.5660 ca         1 80O      -0.304900
     16 C13          9.8050     4.5160     2.4810 ca         1 80O       0.718600
     17 N2          11.1070     4.7450     2.4380 nb         1 80O      -0.780000
     18 C12         11.9870     3.7640     2.4740 ca         1 80O       0.492200
     19 C11         11.5840     2.4430     2.5580 ca         1 80O      -0.310300
     20 C10         10.2350     2.1450     2.6120 ca         1 80O      -0.034000
     21 O2           8.9370     5.5550     2.4410 os         1 80O      -0.391100
     22 C14          9.4980     6.8660     2.3540 c3         1 80O       0.138100
     23 C18          8.5340     7.7850     1.6000 c3         1 80O      -0.086900
     24 C17          9.1110     9.2030     1.5630 c3         1 80O       0.161300
     25 N3           9.3080     9.6890     2.9350 n7         1 80O      -0.819200
     26 C16         10.2670     8.8480     3.6640 c3         1 80O       0.161300
     27 C15          9.7240     7.4210     3.7630 c3         1 80O      -0.086900
     28 HC1         -0.3610    -0.8840     0.5120 h1         1 80O       0.039700
     29 HC2         -0.3610     0.8860     0.5090 h1         1 80O       0.039700
     30 HC3         -0.3610    -0.0020    -1.0210 h1         1 80O       0.039700
     31 H19          4.0230     0.0020     0.3760 ha         1 80O       0.141000
     32 H2           0.2110     0.0040     2.3200 ha         1 80O       0.131000
     33 H4           3.7950    -0.0020     4.6400 ha         1 80O       0.127000
     34 H61C         5.9700    -0.5080     1.7320 hc         1 80O       0.057700
     35 H62C         5.8760    -0.5090     3.4980 hc         1 80O       0.057700
     36 H3           1.3340     0.0010     4.5130 ha         1 80O       0.128000
     37 H1           8.0560     0.9210     2.8360 hn         1 80O       0.313500
     38 H            5.5570     3.3490     2.5970 hn         1 80O       0.468400
     39 H10          9.8950     1.1190     2.6780 ha         1 80O       0.136000
     40 H12         13.0440     3.9970     2.4350 h4         1 80O       0.027100
     41 H11         12.3200     1.6490     2.5890 ha         1 80O       0.144000
     42 H14         10.4440     6.8260     1.8270 h1         1 80O       0.067700
     43 H181         8.4060     7.4220     0.5880 hc         1 80O       0.062700
     44 H182         7.5770     7.7990     2.1080 hc         1 80O       0.062700
     45 H151        10.4400     6.7980     4.2850 hc         1 80O       0.062700
     46 H152         8.7840     7.4290     4.3010 hc         1 80O       0.062700
     47 H171         8.4220     9.8580     1.0450 h1         1 80O       0.033950
     48 H172        10.0630     9.1890     1.0460 h1         1 80O       0.033950
     49 HA           9.6420    10.6320     2.9100 hn         1 80O       0.354800
     50 H161        11.2120     8.8380     3.1330 h1         1 80O       0.033950
     51 H162        10.4110     9.2480     4.6600 h1         1 80O       0.033950
@<TRIPOS>BOND
     1     1     2 1   
     2     2     3 1   
     3     3     4 ar  
     4     3     8 ar  
     5     4     5 ar  
     6     5     6 ar  
     7     5     9 1   
     8     6     7 ar  
     9     7     8 ar  
    10     9    10 1   
    11    10    11 1   
    12    10    14 2   
    13    11    12 1   
    14    12    13 2   
    15    12    15 1   
    16    15    16 ar  
    17    15    20 ar  
    18    16    17 ar  
    19    16    21 1   
    20    17    18 ar  
    21    18    19 ar  
    22    19    20 ar  
    23    21    22 1   
    24    22    23 1   
    25    22    27 1   
    26    23    24 1   
    27    24    25 1   
    28    25    26 1   
    29    26    27 1   
    30     1    28 1   
    31     1    29 1   
    32     1    30 1   
    33     4    31 1   
    34     8    32 1   
    35     6    33 1   
    36     9    34 1   
    37     9    35 1   
    38     7    36 1   
    39    11    37 1   
    40    14    38 1   
    41    20    39 1   
    42    18    40 1   
    43    19    41 1   
    44    22    42 1   
    45    23    43 1   
    46    23    44 1   
    47    27    45 1   
    48    27    46 1   
    49    24    47 1   
    50    24    48 1   
    51    25    49 1   
    52    26    50 1   
    53    26    51 1   
@<TRIPOS>SUBSTRUCTURE
     1 80O         1 TEMP              0 ****  ****    0 ROOT
