@<TRIPOS>MOLECULE
80Q
   30    31     1     0     0
SMALL
bcc


@<TRIPOS>ATOM
      1 C01          0.0000     0.0000     0.0000 c3         1 80Q      -0.041400
      2 C02          1.5300     0.0000     0.0000 c3         1 80Q       0.153800
      3 N03          2.0210     0.0000     1.3840 n7         1 80Q      -0.581200
      4 C04          1.5880    -1.2070     2.1010 c3         1 80Q       0.153800
      5 C05          0.0600    -1.2440     2.1630 c3         1 80Q      -0.041400
      6 C06         -0.5050    -1.2420     0.7400 c3         1 80Q       0.167100
      7 O07         -1.9330    -1.2190     0.7920 os         1 80Q      -0.413100
      8 C08         -2.5680    -2.4180     0.8140 ca         1 80Q       0.659600
      9 C09         -3.9550    -2.4610     0.8650 ca         1 80Q      -0.260300
     10 C10         -4.5910    -3.6900     0.8860 ca         1 80Q       0.031000
     11 C11         -3.8120    -4.8390     0.8560 ca         1 80Q      -0.388600
     12 C12         -2.4370    -4.7210     0.8060 ca         1 80Q       0.512200
     13 N13         -1.8590    -3.5350     0.7810 nb         1 80Q      -0.670000
     14 C14         -4.4600    -6.1990     0.8790 c3         1 80Q       0.654200
     15 F15         -4.7090    -6.6180    -0.4320 f          1 80Q      -0.208300
     16 F16         -3.6060    -7.1130     1.5060 f          1 80Q      -0.208300
     17 F17         -5.6670    -6.1290     1.5830 f          1 80Q      -0.208300
     18 H011        -0.3610    -0.0170    -1.0210 hc         1 80Q       0.029700
     19 H012        -0.3610     0.8900     0.5020 hc         1 80Q       0.029700
     20 H021         1.8900    -0.8860    -0.5090 h1         1 80Q       0.007200
     21 H022         1.8900     0.8860    -0.5090 h1         1 80Q       0.007200
     22 H06         -0.1720    -2.1320     0.2190 h1         1 80Q       0.041700
     23 H03          3.0210     0.0470     1.3830 hn         1 80Q       0.253800
     24 H041         1.9890    -1.1910     3.1070 h1         1 80Q       0.007200
     25 H042         1.9480    -2.0850     1.5770 h1         1 80Q       0.007200
     26 H051        -0.2580    -2.1440     2.6760 hc         1 80Q       0.029700
     27 H052        -0.3010    -0.3720     2.6940 hc         1 80Q       0.029700
     28 H09         -4.5320    -1.5440     0.8870 ha         1 80Q       0.133000
     29 H10         -5.6720    -3.7540     0.9250 ha         1 80Q       0.122000
     30 H12         -1.8250    -5.6140     0.7800 h4         1 80Q      -0.008900
@<TRIPOS>BOND
     1     1     2 1   
     2     1     6 1   
     3     1    18 1   
     4     1    19 1   
     5     2     3 1   
     6     2    20 1   
     7     2    21 1   
     8     3     4 1   
     9     3    23 1   
    10     4     5 1   
    11     4    24 1   
    12     4    25 1   
    13     5     6 1   
    14     5    26 1   
    15     5    27 1   
    16     6     7 1   
    17     6    22 1   
    18     7     8 1   
    19     8     9 ar  
    20     8    13 ar  
    21     9    10 ar  
    22     9    28 1   
    23    10    11 ar  
    24    10    29 1   
    25    11    12 ar  
    26    11    14 1   
    27    12    13 ar  
    28    12    30 1   
    29    14    15 1   
    30    14    16 1   
    31    14    17 1   
@<TRIPOS>SUBSTRUCTURE
     1 80Q         1 TEMP              0 ****  ****    0 ROOT
