@<TRIPOS>MOLECULE
molecule
   30    31     1     0     0
SMALL
bcc


@<TRIPOS>ATOM
      1 C01          0.0000     0.0000     0.0000 c3         1 80Q      -0.087400
      2 C02          1.5300     0.0000     0.0000 c3         1 80Q       0.161300
      3 N03          2.0210     0.0000     1.3840 n7         1 80Q      -0.820200
      4 C04          1.5880    -1.2070     2.1010 c3         1 80Q       0.161300
      5 C05          0.0600    -1.2440     2.1630 c3         1 80Q      -0.087400
      6 C06         -0.5050    -1.2420     0.7400 c3         1 80Q       0.141100
      7 O07         -1.9330    -1.2190     0.7920 os         1 80Q      -0.430100
      8 C08         -2.5680    -2.4180     0.8140 ca         1 80Q       0.687600
      9 C09         -3.9550    -2.4610     0.8650 ca         1 80Q      -0.276300
     10 C10         -4.5910    -3.6900     0.8860 ca         1 80Q      -0.015000
     11 C11         -3.8120    -4.8390     0.8560 ca         1 80Q      -0.356600
     12 C12         -2.4370    -4.7210     0.8060 ca         1 80Q       0.512200
     13 N13         -1.8590    -3.5350     0.7810 nb         1 80Q      -0.775000
     14 C14         -4.4600    -6.1990     0.8790 c3         1 80Q       0.683200
     15 F15         -4.7090    -6.6180    -0.4320 f          1 80Q      -0.223633
     16 F16         -3.6060    -7.1130     1.5060 f          1 80Q      -0.223633
     17 F17         -5.6670    -6.1290     1.5830 f          1 80Q      -0.223633
     18 H011        -0.3610    -0.0170    -1.0210 hc         1 80Q       0.060700
     19 H012        -0.3610     0.8900     0.5020 hc         1 80Q       0.060700
     20 H021         1.8900    -0.8860    -0.5090 h1         1 80Q       0.035700
     21 H022         1.8900     0.8860    -0.5090 h1         1 80Q       0.035700
     22 H06         -0.1720    -2.1320     0.2190 h1         1 80Q       0.073700
     23 H03          3.0210     0.0470     1.3830 hn         1 80Q       0.356800
     24 H041         1.9890    -1.1910     3.1070 h1         1 80Q       0.035700
     25 H042         1.9480    -2.0850     1.5770 h1         1 80Q       0.035700
     26 H051        -0.2580    -2.1440     2.6760 hc         1 80Q       0.060700
     27 H052        -0.3010    -0.3720     2.6940 hc         1 80Q       0.060700
     28 H09         -4.5320    -1.5440     0.8870 ha         1 80Q       0.160000
     29 H10         -5.6720    -3.7540     0.9250 ha         1 80Q       0.158000
     30 H12         -1.8250    -5.6140     0.7800 h4         1 80Q       0.038100
@<TRIPOS>BOND
     1     1     2 1   
     2     1     6 1   
     3     2     3 1   
     4     3     4 1   
     5     4     5 1   
     6     5     6 1   
     7     6     7 1   
     8     7     8 1   
     9     8     9 ar  
    10     8    13 ar  
    11     9    10 ar  
    12    10    11 ar  
    13    11    12 ar  
    14    11    14 1   
    15    12    13 ar  
    16    14    15 1   
    17    14    16 1   
    18    14    17 1   
    19     1    18 1   
    20     1    19 1   
    21     2    20 1   
    22     2    21 1   
    23     6    22 1   
    24     3    23 1   
    25     4    24 1   
    26     4    25 1   
    27     5    26 1   
    28     5    27 1   
    29     9    28 1   
    30    10    29 1   
    31    12    30 1   
@<TRIPOS>SUBSTRUCTURE
     1 80Q         1 TEMP              0 ****  ****    0 ROOT
