@<TRIPOS>MOLECULE
molecule
   30    32     1     0     0
SMALL
bcc


@<TRIPOS>ATOM
      1 C4           0.0000     0.0000     0.0000 ca         1 80R      -0.027000
      2 C5           3.7530     1.1020    -0.9200 ca         1 80R      -0.166000
      3 C6          -0.0080    -0.0060     2.3970 ca         1 80R      -0.018000
      4 C7           5.5820     0.4790    -2.3590 ca         1 80R      -0.016400
      5 C8           4.4540     1.2630    -2.1050 ca         1 80R       0.015600
      6 C10          2.0740     0.0000     1.2040 ca         1 80R       0.237600
      7 C13          5.2690     1.8370    -4.0910 c          1 80R       0.801500
      8 C1           5.9980    -0.4590    -1.4270 ca         1 80R      -0.102000
      9 C2           5.2950    -0.6210    -0.2500 ca         1 80R      -0.148000
     10 C3           1.3810     0.0000     0.0000 ca         1 80R      -0.209000
     11 C9           4.1740     0.1620     0.0080 ca         1 80R       0.148600
     12 C11         -0.6940    -0.0010     1.1970 ca         1 80R      -0.205200
     13 C12          1.3740    -0.0110     2.4050 ca         1 80R      -0.060600
     14 N14          6.0660     0.8640    -3.6090 ns         1 80R      -0.447100
     15 N15          4.2880     2.0990    -3.2070 ns         1 80R      -0.447100
     16 N16          3.4710     0.0010     1.2080 nu         1 80R      -0.663000
     17 N17         -2.1740     0.0050     1.1910 no         1 80R       0.301200
     18 O18         -2.7870     0.0050     2.2450 o          1 80R      -0.208000
     19 O20         -2.7800     0.0110     0.1350 o          1 80R      -0.208000
     20 Cl1          2.2350    -0.0110     3.9130 cl         1 80R      -0.087400
     21 H1          -0.5410     0.0020    -0.9390 ha         1 80R       0.170000
     22 H2           2.8810     1.7120    -0.7190 ha         1 80R       0.151000
     23 H3          -0.5540    -0.0110     3.3330 ha         1 80R       0.179000
     24 H4           6.8710    -1.0700    -1.6250 ha         1 80R       0.143000
     25 H5           5.6210    -1.3550     0.4770 ha         1 80R       0.146000
     26 H6           1.9230     0.0050    -0.9380 ha         1 80R       0.170000
     27 H7           6.8680     0.4830    -4.0700 hn         1 80R       0.364500
     28 H8           3.5630     2.7790    -3.3210 hn         1 80R       0.365500
     29 H9           3.9700    -0.0910     2.0710 hn         1 80R       0.467800
     30 O19          5.4130     2.3940    -5.1630 o          1 80R      -0.649500
@<TRIPOS>BOND
     1    30     7 2
     2     7    14 1
     3     7    15 1
     4    14     4 1
     5    15     5 1
     6     4     5 ar
     7     4     8 ar
     8     5     2 ar
     9     8     9 ar
    10     2    11 ar
    11     9    11 ar
    12    11    16 1
    13    16     6 1
    14     6    10 ar
    15     6    13 ar
    16    20    13 1
    17    10     1 ar
    18    13     3 ar
    19     1    12 ar
    20     3    12 ar
    21    12    17 1
    22    17    19 1
    23    17    18 1
    24     1    21 1
    25     2    22 1
    26     3    23 1
    27     8    24 1
    28     9    25 1
    29    10    26 1
    30    14    27 1
    31    15    28 1
    32    16    29 1
@<TRIPOS>SUBSTRUCTURE
     1 80R         1 TEMP              0 ****  ****    0 ROOT
