@<TRIPOS>MOLECULE
80U
   60    64     1     0     0
SMALL
bcc


@<TRIPOS>ATOM
      1 C4           0.0000     0.0000     0.0000 ca         1 80U       0.346800
      2 C5           1.4070     0.0000     0.0000 ca         1 80U      -0.546500
      3 C6           2.0780     0.0000     1.2330 ca         1 80U       0.614200
      4 N1           1.3520     0.0010     2.3470 nb         1 80U      -0.734000
      5 N3          -0.6390    -0.0040     1.1700 nb         1 80U      -0.687000
      6 C2           0.0320     0.0010     2.3010 ca         1 80U       0.706900
      7 CAA         10.2680     1.0710    -1.8300 c3         1 80U      -0.017400
      8 CAH         11.0590    -1.0660    -4.6230 cc         1 80U       0.321200
      9 CAJ          4.1670    -0.8390    -1.3250 ca         1 80U      -0.060000
     10 CAK          5.4640    -0.8380    -1.7970 ca         1 80U      -0.212000
     11 CAL         11.4120    -0.0910    -3.7640 cd         1 80U      -0.425600
     12 CAM          3.5770     0.8330    -2.9640 ca         1 80U      -0.031000
     13 CAN         -3.5030    -1.2670    -3.0710 c3         1 80U      -0.036400
     14 CAO         -6.4950     3.0720    -3.4120 c2         1 80U      -0.052000
     15 CAP         -5.6650     2.0330    -3.4610 ce         1 80U      -0.256200
     16 CAQ         -2.0430    -1.2490    -2.6150 c3         1 80U      -0.043400
     17 CAR         -3.7800    -0.0310    -3.9330 c3         1 80U       0.036000
     18 CAU         -2.0430     1.2490    -2.6140 c3         1 80U       0.035000
     19 CBD          4.8750     0.8290    -3.4310 ca         1 80U      -0.082600
     20 CBE          3.2140    -0.0030    -1.9070 ca         1 80U      -0.136900
     21 CBF          5.8220    -0.0060    -2.8490 ca         1 80U       0.165100
     22 CBG          9.3770    -0.7570    -3.3080 cd         1 80U       0.167800
     23 CBH          1.8210    -0.0020    -1.4030 cc         1 80U       0.490500
     24 CBL         -1.7860    -0.0010    -1.7660 c3         1 80U      -0.048000
     25 NAB          3.4590    -0.0010     1.2890 nv         1 80U      -0.556500
     26 NAW          9.8110    -1.4530    -4.3220 nc         1 80U      -0.588000
     27 NAY          0.7300    -0.0020    -2.1330 nd         1 80U      -0.626100
     28 NBM         -3.3990     1.1680    -3.1760 n          1 80U      -0.146800
     29 NBN         10.3450     0.1060    -2.9290 na         1 80U       0.312100
     30 NBO         -0.3960    -0.0010    -1.3050 na         1 80U       0.386200
     31 OAE         -3.9180     3.2070    -2.4600 o          1 80U      -0.650100
     32 OAZ          7.0990    -0.0080    -3.3100 os         1 80U      -0.290900
     33 H1          -0.5210     0.0020     3.2320 h5         1 80U      -0.003900
     34 H2          11.2170     1.5840    -1.7330 h1         1 80U       0.025700
     35 H3          10.0440     0.5490    -0.9070 h1         1 80U       0.025700
     36 H4           9.4860     1.7920    -2.0360 h1         1 80U       0.025700
     37 H5          11.6750    -1.4660    -5.4190 h4         1 80U       0.005100
     38 H6           3.8890    -1.4890    -0.5040 ha         1 80U       0.117000
     39 H7           6.2040    -1.4880    -1.3450 ha         1 80U       0.125000
     40 H8          12.3590     0.4360    -3.7390 h4         1 80U       0.154000
     41 H9           2.8400     1.4830    -3.4180 ha         1 80U       0.129000
     42 H10         -4.1520    -1.2540    -2.2040 hc         1 80U       0.024200
     43 H11         -3.6880    -2.1610    -3.6540 hc         1 80U       0.024200
     44 H12         -6.1470     4.0250    -3.0320 ha         1 80U       0.091500
     45 H13         -7.5180     2.9650    -3.7510 ha         1 80U       0.091500
     46 H15         -6.0140     1.0800    -3.8410 ha         1 80U       0.114000
     47 H17         -1.3950    -1.2330    -3.4830 hc         1 80U       0.032700
     48 H18         -1.8400    -2.1330    -2.0230 hc         1 80U       0.032700
     49 H19         -4.8350     0.0140    -4.1750 h1         1 80U       0.030200
     50 H20         -3.1950    -0.0850    -4.8430 h1         1 80U       0.030200
     51 H21          8.0920    -0.6350    -1.6160 h1         1 80U       0.010700
     52 H22          7.6730    -1.9110    -2.7670 h1         1 80U       0.010700
     53 H23         -1.3200     1.2960    -3.4190 h1         1 80U       0.050200
     54 H24         -1.9610     2.1320    -1.9920 h1         1 80U       0.050200
     55 H25         -2.4550    -0.0020    -0.9140 h1         1 80U       0.069700
     56 H26          3.9860     0.5350     0.6270 hn         1 80U       0.282800
     57 H27          3.9320    -0.5640     1.9670 hn         1 80U       0.282800
     58 ClA          5.3260     1.8670    -4.7470 cl         1 80U       0.005600
     59 CAS          8.0210    -0.8900    -2.6670 c3         1 80U       0.206100
     60 CBB         -4.2760     2.1780    -3.0000 c          1 80U       0.602300
@<TRIPOS>BOND
     1     1     2 ar  
     2     1     5 ar  
     3     1    30 1   
     4     2     3 ar  
     5     2    23 1   
     6     3     4 ar  
     7     3    25 1   
     8     4     6 ar  
     9     5     6 ar  
    10     6    33 1   
    11     7    29 1   
    12     7    34 1   
    13     7    35 1   
    14     7    36 1   
    15     8    11 2   
    16     8    26 1   
    17     8    37 1   
    18     9    10 ar  
    19     9    20 ar  
    20     9    38 1   
    21    10    21 ar  
    22    10    39 1   
    23    11    29 1   
    24    11    40 1   
    25    12    19 ar  
    26    12    20 ar  
    27    12    41 1   
    28    13    16 1   
    29    13    17 1   
    30    13    42 1   
    31    13    43 1   
    32    14    15 2   
    33    14    44 1   
    34    14    45 1   
    35    15    46 1   
    36    15    60 1   
    37    16    24 1   
    38    16    47 1   
    39    16    48 1   
    40    17    28 1   
    41    17    49 1   
    42    17    50 1   
    43    18    24 1   
    44    18    28 1   
    45    18    53 1   
    46    18    54 1   
    47    19    21 ar  
    48    19    58 1   
    49    20    23 1   
    50    21    32 1   
    51    22    26 2   
    52    22    29 1   
    53    22    59 1   
    54    23    27 2   
    55    24    30 1   
    56    24    55 1   
    57    25    56 1   
    58    25    57 1   
    59    27    30 1   
    60    28    60 1   
    61    31    60 2   
    62    32    59 1   
    63    51    59 1   
    64    52    59 1   
@<TRIPOS>SUBSTRUCTURE
     1 80U         1 TEMP              0 ****  ****    0 ROOT
