@<TRIPOS>MOLECULE
molecule
   60    64     1     0     0
SMALL
bcc


@<TRIPOS>ATOM
      1 C4           0.0000     0.0000     0.0000 ca         1 80U       0.536800
      2 C5           1.4070     0.0000     0.0000 ca         1 80U      -0.531500
      3 C6           2.0780     0.0000     1.2330 ca         1 80U       0.789200
      4 N1           1.3520     0.0010     2.3470 nb         1 80U      -0.834000
      5 N3          -0.6390    -0.0040     1.1700 nb         1 80U      -0.800000
      6 C2           0.0320     0.0010     2.3010 ca         1 80U       0.754900
      7 CAA         10.2680     1.0710    -1.8300 c3         1 80U       0.028600
      8 CAH         11.0590    -1.0660    -4.6230 cc         1 80U       0.311200
      9 CAJ          4.1670    -0.8390    -1.3250 ca         1 80U      -0.076000
     10 CAK          5.4640    -0.8380    -1.7970 ca         1 80U      -0.228000
     11 CAL         11.4120    -0.0910    -3.7640 cd         1 80U      -0.263600
     12 CAM          3.5770     0.8330    -2.9640 ca         1 80U      -0.057000
     13 CAN         -3.5030    -1.2670    -3.0710 c3         1 80U      -0.099400
     14 CAO         -6.4950     3.0720    -3.4120 c2         1 80U      -0.129000
     15 CAP         -5.6650     2.0330    -3.4610 ce         1 80U      -0.254200
     16 CAQ         -2.0430    -1.2490    -2.6150 c3         1 80U      -0.095400
     17 CAR         -3.7800    -0.0310    -3.9330 c3         1 80U       0.097000
     18 CAU         -2.0430     1.2490    -2.6140 c3         1 80U       0.095000
     19 CBD          4.8750     0.8290    -3.4310 ca         1 80U      -0.007600
     20 CBE          3.2140    -0.0030    -1.9070 ca         1 80U      -0.133900
     21 CBF          5.8220    -0.0060    -2.8490 ca         1 80U       0.159100
     22 CBG          9.3770    -0.7570    -3.3080 cd         1 80U       0.386800
     23 CBH          1.8210    -0.0020    -1.4030 cd         1 80U       0.450500
     24 CBL         -1.7860    -0.0010    -1.7660 c3         1 80U       0.072000
     25 NAB          3.4590    -0.0010     1.2890 nv         1 80U      -1.017500
     26 NAW          9.8110    -1.4530    -4.3220 nc         1 80U      -0.669000
     27 NAY          0.7300    -0.0020    -2.1330 nc         1 80U      -0.495100
     28 NBM         -3.3990     1.1680    -3.1760 n          1 80U      -0.489800
     29 NBN         10.3450     0.1060    -2.9290 na         1 80U      -0.174900
     30 NBO         -0.3960    -0.0010    -1.3050 na         1 80U      -0.024800
     31 OAE         -3.9180     3.2070    -2.4600 o          1 80U      -0.610100
     32 OAZ          7.0990    -0.0080    -3.3100 os         1 80U      -0.306900
     33 H1          -0.5210     0.0020     3.2320 h5         1 80U       0.062100
     34 H2          11.2170     1.5840    -1.7330 h1         1 80U       0.056033
     35 H3           9.4860     1.7920    -2.0370 h1         1 80U       0.056033
     36 H4          10.0430     0.5490    -0.9070 h1         1 80U       0.056033
     37 H5          11.6760    -1.4660    -5.4190 h4         1 80U       0.044100
     38 H6           3.8890    -1.4890    -0.5040 ha         1 80U       0.153000
     39 H7           6.2040    -1.4880    -1.3450 ha         1 80U       0.143000
     40 H8          12.3590     0.4360    -3.7390 h4         1 80U       0.176000
     41 H9           2.8400     1.4830    -3.4180 ha         1 80U       0.164000
     42 H10         -3.6880    -2.1610    -3.6540 hc         1 80U       0.054200
     43 H11         -4.1520    -1.2540    -2.2040 hc         1 80U       0.054200
     44 H12         -7.5180     2.9650    -3.7510 ha         1 80U       0.130000
     45 H13         -6.1470     4.0250    -3.0320 ha         1 80U       0.130000
     46 H15         -6.0140     1.0800    -3.8400 ha         1 80U       0.129000
     47 H17         -1.8400    -2.1330    -2.0230 hc         1 80U       0.060700
     48 H18         -1.3950    -1.2320    -3.4830 hc         1 80U       0.060700
     49 H19         -4.8350     0.0140    -4.1750 h1         1 80U       0.054700
     50 H20         -3.1950    -0.0850    -4.8430 h1         1 80U       0.054700
     51 H21          7.6730    -1.9120    -2.7670 h1         1 80U       0.054200
     52 H22          8.0920    -0.6350    -1.6160 h1         1 80U       0.054200
     53 H23         -1.9610     2.1320    -1.9910 h1         1 80U       0.078200
     54 H24         -1.3200     1.2960    -3.4190 h1         1 80U       0.078200
     55 H25         -2.4550    -0.0020    -0.9150 h1         1 80U       0.098700
     56 H26          3.9280    -0.4620     2.0430 hn         1 80U       0.446800
     57 H27          3.9860     0.5180     0.6140 hn         1 80U       0.446800
     58 ClA          5.3260     1.8670    -4.7470 cl         1 80U      -0.079400
     59 CAS          8.0210    -0.8900    -2.6670 c3         1 80U       0.131100
     60 CBB         -4.2760     2.1780    -3.0000 c          1 80U       0.669300
@<TRIPOS>BOND
     1    14    15 2
     2    15    60 1
     3    31    60 2
     4    60    28 1
     5     6     5 ar
     6     6     4 ar
     7     5     1 ar
     8    28    18 1
     9    28    17 1
    10    18    24 1
    11     4     3 ar
    12    24    30 1
    13    24    16 1
    14     1    30 1
    15     1     2 ar
    16    30    27 1
    17     3     2 ar
    18     3    25 1
    19    17    13 1
    20     2    23 1
    21    13    16 1
    22    27    23 2
    23    23    20 1
    24     8    26 1
    25     8    11 2
    26     9    20 ar
    27     9    10 ar
    28    26    22 2
    29    20    12 ar
    30    11    29 1
    31    10    21 ar
    32    22    29 1
    33    22    59 1
    34    12    19 ar
    35    29     7 1
    36    21    19 ar
    37    21    32 1
    38    19    58 1
    39    59    32 1
    40     6    33 1
    41     7    34 1
    42     7    35 1
    43     7    36 1
    44     8    37 1
    45     9    38 1
    46    10    39 1
    47    11    40 1
    48    12    41 1
    49    13    42 1
    50    13    43 1
    51    14    44 1
    52    14    45 1
    53    15    46 1
    54    16    47 1
    55    16    48 1
    56    17    49 1
    57    17    50 1
    58    59    51 1
    59    59    52 1
    60    18    53 1
    61    18    54 1
    62    24    55 1
    63    25    56 1
    64    25    57 1
@<TRIPOS>SUBSTRUCTURE
     1 80U         1 TEMP              0 ****  ****    0 ROOT
