@<TRIPOS>MOLECULE
810
   36    38     1     0     0
SMALL
bcc


@<TRIPOS>ATOM
      1 O2           0.0000     0.0000     0.0000 o          1 810      -0.674500
      2 C12          1.2180     0.0000     0.0000 c          1 810       0.641100
      3 C11          1.9780     0.0000     1.2560 ca         1 810      -0.235600
      4 C10          1.3400    -0.0010     2.4950 ca         1 810       0.013000
      5 C9           2.0940    -0.0020     3.6500 ca         1 810      -0.306200
      6 N4           1.7730    -0.0020     5.0010 na         1 810       0.212700
      7 C7           2.9470    -0.0020     5.6950 cc         1 810       0.354700
      8 N3           3.0540    -0.0030     7.0670 nu         1 810      -0.463200
      9 C8           1.8450    -0.0040     7.8960 c3         1 810       0.194100
     10 N2           3.9610    -0.0020     4.8620 nd         1 810      -0.614100
     11 C6           3.5040    -0.0020     3.5840 ca         1 810       0.146400
     12 C5           4.1480    -0.0010     2.3470 ca         1 810      -0.057000
     13 C4           3.3930     0.0000     1.1800 ca         1 810       0.151400
     14 N1           3.9870     0.0010    -0.0420 nc         1 810      -0.504100
     15 N5           1.9190    -0.0060    -1.1570 ns         1 810      -0.040400
     16 C3           3.2830     0.0020    -1.1430 cd         1 810       0.193500
     17 N            3.9530     0.0030    -2.3490 ns         1 810      -0.017400
     18 C2           5.3010     0.0040    -2.3720 c          1 810       0.655100
     19 O1           5.9260     0.0030    -1.3310 o          1 810      -0.565000
     20 O            5.9530     0.0060    -3.5500 os         1 810      -0.433900
     21 C1           7.4040     0.0060    -3.4990 c3         1 810       0.244400
     22 C            7.9640     0.0080    -4.9220 c3         1 810      -0.005100
     23 H1           0.2640    -0.1190     2.5500 ha         1 810       0.117000
     24 H2           0.8610     0.1340     5.3900 hn         1 810       0.131700
     25 H3           3.9570    -0.0310     7.4990 hn         1 810       0.313800
     26 H4           1.2720     0.8930     7.6990 h1         1 810       0.005033
     27 H5           2.1240    -0.0330     8.9420 h1         1 810       0.005033
     28 H6           1.2460    -0.8750     7.6580 h1         1 810       0.005033
     29 H8           5.2240     0.1150     2.2970 ha         1 810       0.135000
     30 H9           1.4320    -0.0050    -2.0310 hn         1 810       0.174500
     31 H10          3.4380     0.0040    -3.2070 hn         1 810       0.165500
     32 H11          7.7480    -0.8790    -2.9780 h1         1 810       0.011700
     33 H12          7.7470     0.8900    -2.9750 h1         1 810       0.011700
     34 H13          7.6220    -0.8760    -5.4460 hc         1 810       0.010700
     35 H14          7.6210     0.8930    -5.4440 hc         1 810       0.010700
     36 H15          9.0470     0.0090    -4.8840 hc         1 810       0.010700
@<TRIPOS>BOND
     1     1     2 2   
     2     2     3 1   
     3     2    15 1   
     4     3     4 ar  
     5     3    13 ar  
     6     4     5 ar  
     7     4    23 1   
     8     5     6 1   
     9     5    11 ar  
    10     6     7 1   
    11     6    24 1   
    12     7     8 1   
    13     7    10 2   
    14     8     9 1   
    15     8    25 1   
    16     9    26 1   
    17     9    27 1   
    18     9    28 1   
    19    10    11 1   
    20    11    12 ar  
    21    12    13 ar  
    22    12    29 1   
    23    13    14 1   
    24    14    16 2   
    25    15    16 1   
    26    15    30 1   
    27    16    17 1   
    28    17    18 1   
    29    17    31 1   
    30    18    19 2   
    31    18    20 1   
    32    20    21 1   
    33    21    22 1   
    34    21    32 1   
    35    21    33 1   
    36    22    34 1   
    37    22    35 1   
    38    22    36 1   
@<TRIPOS>SUBSTRUCTURE
     1 810         1 TEMP              0 ****  ****    0 ROOT
