@<TRIPOS>MOLECULE
molecule
   43    45     1     0     0
SMALL
bcc


@<TRIPOS>ATOM
      1 C1S          0.0000     0.0000     0.0000 c3         1 812       0.136800
      2 N1T          1.4860     0.0000     0.0000 n7         1 812      -0.784200
      3 C1R         -0.3890     0.9490     1.1540 c3         1 812      -0.083400
      4 C1Q          0.8280     0.9490     2.1010 c3         1 812      -0.078400
      5 C1P          1.8510     0.0000     1.4400 c3         1 812       0.148500
      6 C1O          3.2730     0.5320     1.6300 c3         1 812       0.152400
      7 O1N          4.2040    -0.3800     1.0440 os         1 812      -0.336900
      8 C1K          5.5210    -0.0540     1.1260 ca         1 812       0.091100
      9 C1J          5.9080     1.1160     1.7620 ca         1 812      -0.143500
     10 C1I          7.2460     1.4480     1.8470 ca         1 812      -0.172500
     11 C1H          8.2050     0.6090     1.2940 ca         1 812       0.169600
     12 C1M          7.8180    -0.5630     0.6570 ca         1 812      -0.172500
     13 C1L          6.4790    -0.8950     0.5780 ca         1 812      -0.143500
     14 N1           9.5610     0.9440     1.3780 nu         1 812      -0.832600
     15 C1G         10.5720     0.0590     0.7950 c3         1 812       0.288100
     16 C1C         11.9420     0.6450     1.0200 ca         1 812      -0.114300
     17 C1D         12.6530     0.3220     2.1620 ca         1 812      -0.111500
     18 C1E         13.9100     0.8590     2.3690 ca         1 812      -0.131000
     19 C1F         14.4560     1.7190     1.4350 ca         1 812      -0.121000
     20 C1A         13.7460     2.0410     0.2930 ca         1 812      -0.131000
     21 C1B         12.4920     1.4990     0.0840 ca         1 812      -0.111500
     22 H1S         -0.3760    -0.9980     0.1900 h1         1 812       0.039700
     23 H1SA        -0.3760     0.3790    -0.9420 h1         1 812       0.039700
     24 HN1T         1.8190    -0.8400    -0.4290 hn         1 812       0.357800
     25 H1R         -1.2650     0.5730     1.6690 hc         1 812       0.048700
     26 H1RA        -0.5680     1.9480     0.7740 hc         1 812       0.048700
     27 H1Q          0.5440     0.5730     3.0760 hc         1 812       0.049200
     28 H1QA         1.2410     1.9480     2.1810 hc         1 812       0.049200
     29 H1P          1.7570    -0.9980     1.8510 h1         1 812       0.040700
     30 H1O          3.3640     1.4990     1.1510 h1         1 812       0.041200
     31 H1OA         3.4820     0.6310     2.6880 h1         1 812       0.041200
     32 H1J          5.1600     1.7710     2.1930 ha         1 812       0.136500
     33 H1I          7.5480     2.3620     2.3440 ha         1 812       0.131500
     34 H1M          8.5650    -1.2190     0.2270 ha         1 812       0.131500
     35 H1L          6.1770    -1.8080     0.0810 ha         1 812       0.136500
     36 HN1          9.8400     1.7900     1.8350 hn         1 812       0.440800
     37 H1G         10.3930    -0.0420    -0.2690 h1         1 812       0.042700
     38 H1GA        10.5130    -0.9150     1.2650 h1         1 812       0.042700
     39 H1D         12.2240    -0.3510     2.8940 ha         1 812       0.135000
     40 H1E         14.4660     0.6070     3.2640 ha         1 812       0.132000
     41 H1F         15.4400     2.1410     1.5980 ha         1 812       0.131000
     42 H1A         14.1760     2.7130    -0.4400 ha         1 812       0.132000
     43 H1B         11.9360     1.7520    -0.8110 ha         1 812       0.135000
@<TRIPOS>BOND
     1     2     1 1
     2     1     3 1
     3     1    22 1
     4     1    23 1
     5     5     2 1
     6     2    24 1
     7     4     3 1
     8     3    25 1
     9     3    26 1
    10     5     4 1
    11     4    27 1
    12     4    28 1
    13     6     5 1
    14     5    29 1
    15     6     7 1
    16     6    30 1
    17     6    31 1
    18     7     8 1
    19     9     8 ar
    20     8    13 ar
    21     9    10 ar
    22     9    32 1
    23    10    11 ar
    24    10    33 1
    25    11    14 1
    26    11    12 ar
    27    13    12 ar
    28    12    34 1
    29    13    35 1
    30    14    15 1
    31    14    36 1
    32    15    16 1
    33    15    37 1
    34    15    38 1
    35    21    16 ar
    36    16    17 ar
    37    17    18 ar
    38    17    39 1
    39    19    18 ar
    40    18    40 1
    41    20    19 ar
    42    19    41 1
    43    21    20 ar
    44    20    42 1
    45    21    43 1
@<TRIPOS>SUBSTRUCTURE
     1 812         1 TEMP              0 ****  ****    0 ROOT
