@<TRIPOS>MOLECULE
molecule
   50    54     1     0     0
SMALL
bcc


@<TRIPOS>ATOM
      1 C1           0.0000     0.0000     0.0000 ca         1 815      -0.091000
      2 C2           1.3640     0.0000     0.0000 ca         1 815      -0.128000
      3 C3           2.0530     0.0000     1.2210 ca         1 815      -0.004000
      4 C4           1.3230    -0.0060     2.4360 ca         1 815      -0.175300
      5 C5          -0.0760     0.0000     2.3970 ca         1 815      -0.080000
      6 C6          -0.7160     0.0000     1.1940 ca         1 815      -0.126300
      7 C10          3.4600    -0.0000     1.2880 ca         1 815      -0.250300
      8 C11          4.0590     0.0000     2.5090 ca         1 815       0.428200
      9 N12          3.3590     0.0020     3.6360 nb         1 815      -0.718000
     10 C13          2.0400     0.0020     3.6530 ca         1 815       0.701200
     11 C16         -6.4100    -3.2520    -3.8410 ca         1 815      -0.102400
     12 C17         -7.4190    -2.5410    -4.4530 ca         1 815      -0.064000
     13 C18         -7.2050    -2.0880    -5.7470 ca         1 815      -0.225300
     14 C19         -5.9920    -2.3710    -6.3550 ca         1 815       0.418200
     15 N20         -5.0490    -3.0480    -5.7510 nb         1 815      -0.648000
     16 C21         -5.1870    -3.5190    -4.4950 ca         1 815       0.409100
     17 C25         -4.2320    -4.2770    -3.7030 cc         1 815      -0.084800
     18 C26         -4.5650    -4.6620    -2.4610 cd         1 815      -0.231500
     19 S27         -6.2130    -4.0140    -2.2530 ss         1 815      -0.054500
     20 N28         -2.7110    -1.3810     1.1400 n          1 815      -0.491800
     21 C29         -2.9390    -2.0940     0.0240 c          1 815       0.688500
     22 C30         -3.4220    -3.4810     0.3850 c3         1 815       0.163500
     23 C31         -3.0650    -3.6340     1.8810 c3         1 815      -0.105400
     24 C32         -3.0180    -2.1610     2.3450 c3         1 815       0.093000
     25 N37         -2.7300    -4.4950    -0.4130 n7         1 815      -0.889100
     26 S38         -3.6020    -5.5820    -1.3090 sy         1 815       1.446800
     27 O39         -2.6490    -6.2950    -2.0850 o          1 815      -0.622300
     28 O40         -4.5320    -6.1660    -0.4070 o          1 815      -0.622300
     29 O41         -2.7740    -1.6870    -1.1050 o          1 815      -0.618500
     30 N42          1.3610     0.0020     4.8590 nv         1 815      -1.082500
     31 C43         -2.2230    -0.0000     1.1530 c3         1 815       0.170300
     32 H11         -0.5340     0.0000    -0.9430 ha         1 815       0.150000
     33 H21          1.9100    -0.0000    -0.9350 ha         1 815       0.141000
     34 H51         -0.6470     0.0000     3.3180 ha         1 815       0.137000
     35 H101         4.0540    -0.0010     0.3830 ha         1 815       0.141000
     36 H111         5.1410     0.0010     2.5630 h4         1 815       0.020100
     37 H181        -7.9690    -1.5250    -6.2700 ha         1 815       0.147000
     38 H191        -5.8190    -2.0200    -7.3650 h4         1 815       0.028100
     39 H251        -3.2630    -4.5340    -4.1140 ha         1 815       0.174000
     40 H301        -4.4940    -3.5520     0.2470 h1         1 815       0.096700
     41 H311        -2.0970    -4.1060     1.9990 hc         1 815       0.071200
     42 H312        -3.8380    -4.1800     2.4080 hc         1 815       0.071200
     43 H321        -2.2390    -2.0280     3.0860 h1         1 815       0.050700
     44 H322        -3.9800    -1.8660     2.7460 h1         1 815       0.050700
     45 H371        -1.7310    -4.5530    -0.3900 hn         1 815       0.464800
     46 H421         1.1400     0.8680     5.3080 hn         1 815       0.437300
     47 H422         1.1320    -0.8650     5.3040 hn         1 815       0.437300
     48 H431        -2.5600     0.5100     0.2590 h1         1 815       0.065700
     49 H432        -2.6080     0.5100     2.0270 h1         1 815       0.065700
     50 H171        -8.3520    -2.3420    -3.9400 ha         1 815       0.147000
@<TRIPOS>BOND
     1     1     2 ar  
     2     1     6 ar  
     3     1    32 1   
     4     2     3 ar  
     5     2    33 1   
     6     3     4 ar  
     7     3     7 ar  
     8     4     5 ar  
     9     4    10 ar  
    10     5     6 ar  
    11     5    34 1   
    12     6    31 1   
    13     7     8 ar  
    14     7    35 1   
    15     8     9 ar  
    16     8    36 1   
    17     9    10 ar  
    18    10    30 1   
    19    11    12 ar  
    20    11    16 ar  
    21    11    19 1   
    22    12    13 ar  
    23    12    50 1   
    24    13    14 ar  
    25    13    37 1   
    26    14    15 ar  
    27    14    38 1   
    28    15    16 ar  
    29    16    17 1   
    30    17    18 2   
    31    17    39 1   
    32    18    19 1   
    33    18    26 1   
    34    20    21 1   
    35    20    24 1   
    36    20    31 1   
    37    21    22 1   
    38    21    29 2   
    39    22    23 1   
    40    22    25 1   
    41    22    40 1   
    42    23    24 1   
    43    23    41 1   
    44    23    42 1   
    45    24    43 1   
    46    24    44 1   
    47    25    26 1   
    48    25    45 1   
    49    26    27 2   
    50    26    28 2   
    51    30    46 1   
    52    30    47 1   
    53    31    48 1   
    54    31    49 1   
@<TRIPOS>SUBSTRUCTURE
     1 815         1 TEMP              0 ****  ****    0 ROOT
