@<TRIPOS>MOLECULE
molecule
   62    66     1     0     0
SMALL
bcc


@<TRIPOS>ATOM
      1 C4           0.0000     0.0000     0.0000 ca         1 816       0.534800
      2 C5           1.4070     0.0000     0.0000 ca         1 816      -0.532500
      3 C6           2.0790     0.0000     1.2330 ca         1 816       0.790200
      4 N1           1.3530     0.0000     2.3470 nb         1 816      -0.833000
      5 N3          -0.6400    -0.0040     1.1700 nb         1 816      -0.802000
      6 C2           0.0320     0.0010     2.3010 ca         1 816       0.754900
      7 CAH         10.8050     0.2440    -4.9400 ca         1 816      -0.090000
      8 CAJ         11.8370    -0.5400    -4.4470 ca         1 816      -0.248300
      9 CAK          9.5520     0.1270    -4.3570 ca         1 816      -0.230300
     10 CAL          4.1670    -0.8400    -1.3270 ca         1 816      -0.075000
     11 CAM          5.4620    -0.8430    -1.8020 ca         1 816      -0.223000
     12 CAN          3.5770     0.8330    -2.9640 ca         1 816      -0.058000
     13 CAO         -3.5060    -1.2670    -3.0670 c3         1 816      -0.100400
     14 CAQ         -3.8410     3.4240    -2.3530 ce         1 816      -0.254200
     15 CAR         -2.0440    -1.2500    -2.6110 c3         1 816      -0.095400
     16 CAS         -3.7810    -0.0340    -3.9320 c3         1 816       0.104000
     17 CAV         -2.0430     1.2480    -2.6170 c3         1 816       0.088000
     18 CBD         11.5850    -1.4040    -3.3990 ca         1 816       0.433600
     19 CBF          4.8740     0.8280    -3.4310 ca         1 816      -0.008600
     20 CBG          9.3740    -0.7640    -3.3160 ca         1 816       0.419600
     21 CBH          3.2150    -0.0020    -1.9070 ca         1 816      -0.134900
     22 CBI          5.8200    -0.0100    -2.8530 ca         1 816       0.162100
     23 CBJ          1.8210    -0.0010    -1.4030 cc         1 816       0.452500
     24 CBN         -1.7860    -0.0000    -1.7660 c3         1 816       0.073000
     25 NAB          3.4590    -0.0010     1.2880 nv         1 816      -1.017500
     26 NAY         10.3810    -1.4890    -2.8700 nb         1 816      -0.697000
     27 NAZ          0.7300    -0.0010    -2.1330 nd         1 816      -0.497100
     28 NBO         -3.3980     1.1680    -3.1780 n          1 816      -0.488800
     29 NBP         -0.3970    -0.0000    -1.3040 na         1 816      -0.027800
     30 OAE         -5.4230     2.0580    -3.3860 o          1 816      -0.613100
     31 OBA          7.0980    -0.0120    -3.3150 os         1 816      -0.318900
     32 H1          -0.5210     0.0010     3.2330 h5         1 816       0.063100
     33 H2          13.0620    -2.9190    -3.6380 hc         1 816       0.053033
     34 H3          13.5090    -1.6270    -2.5160 hc         1 816       0.053033
     35 H4          12.3310    -2.8520    -2.0280 hc         1 816       0.053033
     36 H5          10.9730     0.9320    -5.7590 ha         1 816       0.141000
     37 H6          12.8290    -0.4750    -4.8790 ha         1 816       0.140000
     38 H7           8.7220     0.7230    -4.7160 ha         1 816       0.161000
     39 H8           3.8890    -1.4900    -0.5060 ha         1 816       0.154000
     40 H9           6.2010    -1.4950    -1.3520 ha         1 816       0.149000
     41 H10          2.8400     1.4860    -3.4170 ha         1 816       0.162000
     42 H11         -4.1540    -1.2510    -2.1990 hc         1 816       0.056200
     43 H12         -3.6920    -2.1630    -3.6470 hc         1 816       0.056200
     44 H13         -4.4130     5.2830    -1.5810 ha         1 816       0.129500
     45 H14         -5.7780     4.2160    -2.3020 ha         1 816       0.129500
     46 H16         -2.7960     3.5730    -2.1110 ha         1 816       0.130000
     47 H18         -1.3970    -1.2380    -3.4800 hc         1 816       0.060200
     48 H19         -1.8430    -2.1340    -2.0170 hc         1 816       0.060200
     49 H20         -3.1960    -0.0920    -4.8420 h1         1 816       0.066200
     50 H21         -4.8360     0.0100    -4.1740 h1         1 816       0.066200
     51 H22          7.6680    -1.9190    -2.7820 h1         1 816       0.059200
     52 H23          8.0870    -0.6500    -1.6230 h1         1 816       0.059200
     53 H24         -1.9600     2.1330    -1.9970 h1         1 816       0.065700
     54 H25         -1.3200     1.2930    -3.4220 h1         1 816       0.065700
     55 H26         -2.4550     0.0020    -0.9140 h1         1 816       0.098700
     56 H27          3.9860     0.5260     0.6200 hn         1 816       0.447800
     57 H28          3.9290    -0.4760     2.0330 hn         1 816       0.447800
     58 CBC         -4.2740     2.1770    -3.0040 c          1 816       0.670300
     59 ClA          5.3270     1.8680    -4.7450 cl         1 816      -0.086400
     60 CAT          8.0170    -0.9000    -2.6750 c3         1 816       0.093100
     61 CAA         12.7000    -2.2610    -2.8570 c3         1 816      -0.141400
     62 CAP         -4.7320     4.3660    -2.0610 c2         1 816      -0.129000
@<TRIPOS>BOND
     1    59    19 1
     2    25     3 1
     3     4     3 ar
     4     4     6 ar
     5    61    18 1
     6     3     2 ar
     7     6     5 ar
     8    19    12 ar
     9    19    22 ar
    10    12    21 ar
    11    18    26 ar
    12    18     8 ar
    13    26    20 ar
    14    31    22 1
    15    31    60 1
    16     2     1 ar
    17     2    23 1
    18     5     1 ar
    19    22    11 ar
    20    21    23 1
    21    21    10 ar
    22     1    29 1
    23     8     7 ar
    24    23    27 2
    25    20    60 1
    26    20     9 ar
    27    11    10 ar
    28    29    27 1
    29    29    24 1
    30     7     9 ar
    31    13    15 1
    32    13    16 1
    33    15    24 1
    34    24    17 1
    35    16    28 1
    36    17    28 1
    37    28    58 1
    38    62    14 2
    39    58    30 2
    40    58    14 1
    41     6    32 1
    42    61    33 1
    43    61    34 1
    44    61    35 1
    45     7    36 1
    46     8    37 1
    47     9    38 1
    48    10    39 1
    49    11    40 1
    50    12    41 1
    51    13    42 1
    52    13    43 1
    53    62    44 1
    54    62    45 1
    55    14    46 1
    56    15    47 1
    57    15    48 1
    58    16    49 1
    59    16    50 1
    60    60    51 1
    61    60    52 1
    62    17    53 1
    63    17    54 1
    64    24    55 1
    65    25    56 1
    66    25    57 1
@<TRIPOS>SUBSTRUCTURE
     1 816         1 TEMP              0 ****  ****    0 ROOT
