@<TRIPOS>MOLECULE
816
   62    66     1     0     0
SMALL
bcc


@<TRIPOS>ATOM
      1 C4           0.0000     0.0000     0.0000 ca         1 816       0.347800
      2 C5           1.4070     0.0000     0.0000 ca         1 816      -0.549500
      3 C6           2.0790     0.0000     1.2330 ca         1 816       0.615200
      4 N1           1.3530     0.0000     2.3470 nb         1 816      -0.740000
      5 N3          -0.6400    -0.0040     1.1700 nb         1 816      -0.694000
      6 C2           0.0320     0.0010     2.3010 ca         1 816       0.710900
      7 CAH         10.8050     0.2440    -4.9400 ca         1 816      -0.061000
      8 CAJ         11.8370    -0.5400    -4.4470 ca         1 816      -0.218300
      9 CAK          9.5520     0.1270    -4.3570 ca         1 816      -0.207300
     10 CAL          4.1670    -0.8400    -1.3270 ca         1 816      -0.059000
     11 CAM          5.4620    -0.8430    -1.8020 ca         1 816      -0.207000
     12 CAN          3.5770     0.8330    -2.9640 ca         1 816      -0.032000
     13 CAO         -3.5060    -1.2670    -3.0670 c3         1 816      -0.037400
     14 CAQ         -3.8410     3.4240    -2.3530 ce         1 816      -0.256200
     15 CAR         -2.0440    -1.2500    -2.6110 c3         1 816      -0.043400
     16 CAS         -3.7810    -0.0340    -3.9320 c3         1 816       0.047000
     17 CAV         -2.0430     1.2480    -2.6170 c3         1 816       0.024000
     18 CBD         11.5850    -1.4040    -3.3990 ca         1 816       0.376600
     19 CBF          4.8740     0.8280    -3.4310 ca         1 816      -0.082600
     20 CBG          9.3740    -0.7640    -3.3160 ca         1 816       0.357600
     21 CBH          3.2150    -0.0020    -1.9070 ca         1 816      -0.137900
     22 CBI          5.8200    -0.0100    -2.8530 ca         1 816       0.166100
     23 CBJ          1.8210    -0.0010    -1.4030 cc         1 816       0.493500
     24 CBN         -1.7860    -0.0000    -1.7660 c3         1 816      -0.046000
     25 NAB          3.4590    -0.0010     1.2880 nv         1 816      -0.546500
     26 NAY         10.3810    -1.4890    -2.8700 nb         1 816      -0.570000
     27 NAZ          0.7300    -0.0010    -2.1330 nd         1 816      -0.629100
     28 NBO         -3.3980     1.1680    -3.1780 n          1 816      -0.144800
     29 NBP         -0.3970    -0.0000    -1.3040 na         1 816       0.381200
     30 OAE         -5.4230     2.0580    -3.3860 o          1 816      -0.651100
     31 OBA          7.0980    -0.0120    -3.3150 os         1 816      -0.298900
     32 H1          -0.5210     0.0010     3.2330 h5         1 816      -0.003900
     33 H2          13.0780    -2.9030    -3.6440 hc         1 816       0.014367
     34 H3          13.4990    -1.6260    -2.4940 hc         1 816       0.014367
     35 H4          12.3250    -2.8700    -2.0440 hc         1 816       0.014367
     36 H5          10.9730     0.9320    -5.7590 ha         1 816       0.110000
     37 H6          12.8290    -0.4750    -4.8790 ha         1 816       0.116000
     38 H7           8.7220     0.7230    -4.7160 ha         1 816       0.133000
     39 H8           3.8890    -1.4900    -0.5070 ha         1 816       0.119000
     40 H9           6.2010    -1.4950    -1.3520 ha         1 816       0.129000
     41 H10          2.8400     1.4860    -3.4170 ha         1 816       0.128000
     42 H11         -4.1540    -1.2510    -2.1990 hc         1 816       0.025700
     43 H12         -3.6920    -2.1630    -3.6470 hc         1 816       0.025700
     44 H13         -5.7780     4.2150    -2.3020 ha         1 816       0.091500
     45 H14         -4.4130     5.2830    -1.5810 ha         1 816       0.091500
     46 H16         -2.7950     3.5740    -2.1120 ha         1 816       0.113000
     47 H18         -1.3970    -1.2380    -3.4800 hc         1 816       0.032200
     48 H19         -1.8430    -2.1340    -2.0170 hc         1 816       0.032200
     49 H20         -4.8360     0.0100    -4.1740 h1         1 816       0.038700
     50 H21         -3.1960    -0.0920    -4.8430 h1         1 816       0.038700
     51 H22          7.6680    -1.9190    -2.7820 h1         1 816       0.018200
     52 H23          8.0870    -0.6500    -1.6230 h1         1 816       0.018200
     53 H24         -1.9600     2.1330    -1.9970 h1         1 816       0.040700
     54 H25         -1.3200     1.2930    -3.4220 h1         1 816       0.040700
     55 H26         -2.4550     0.0020    -0.9140 h1         1 816       0.069700
     56 H27          3.9870     0.5180     0.6140 hn         1 816       0.283800
     57 H28          3.9300    -0.4940     2.0210 hn         1 816       0.283800
     58 CBC         -4.2740     2.1770    -3.0040 c          1 816       0.601300
     59 ClA          5.3270     1.8680    -4.7450 cl         1 816      -0.000400
     60 CAT          8.0170    -0.9000    -2.6750 c3         1 816       0.162100
     61 CAA         12.7000    -2.2610    -2.8570 c3         1 816      -0.040400
     62 CAP         -4.7320     4.3660    -2.0610 c2         1 816      -0.052000
@<TRIPOS>BOND
     1     1     2 ar  
     2     1     5 ar  
     3     1    29 1   
     4     2     3 ar  
     5     2    23 1   
     6     3     4 ar  
     7     3    25 1   
     8     4     6 ar  
     9     5     6 ar  
    10     6    32 1   
    11     7     8 ar  
    12     7     9 ar  
    13     7    36 1   
    14     8    18 ar  
    15     8    37 1   
    16     9    20 ar  
    17     9    38 1   
    18    10    11 ar  
    19    10    21 ar  
    20    10    39 1   
    21    11    22 ar  
    22    11    40 1   
    23    12    19 ar  
    24    12    21 ar  
    25    12    41 1   
    26    13    15 1   
    27    13    16 1   
    28    13    42 1   
    29    13    43 1   
    30    14    46 1   
    31    14    58 1   
    32    14    62 2   
    33    15    24 1   
    34    15    47 1   
    35    15    48 1   
    36    16    28 1   
    37    16    49 1   
    38    16    50 1   
    39    17    24 1   
    40    17    28 1   
    41    17    53 1   
    42    17    54 1   
    43    18    26 ar  
    44    18    61 1   
    45    19    22 ar  
    46    19    59 1   
    47    20    26 ar  
    48    20    60 1   
    49    21    23 1   
    50    22    31 1   
    51    23    27 2   
    52    24    29 1   
    53    24    55 1   
    54    25    56 1   
    55    25    57 1   
    56    27    29 1   
    57    28    58 1   
    58    30    58 2   
    59    31    60 1   
    60    33    61 1   
    61    34    61 1   
    62    35    61 1   
    63    44    62 1   
    64    45    62 1   
    65    51    60 1   
    66    52    60 1   
@<TRIPOS>SUBSTRUCTURE
     1 816         1 TEMP              0 ****  ****    0 ROOT
