@<TRIPOS>MOLECULE
molecule
   30    30     1     0     0
SMALL
bcc


@<TRIPOS>ATOM
      1 N1           0.0000     0.0000     0.0000 n2         1 817      -0.786100
      2 C2           3.3700    -0.0950    -1.1970 c2         1 817       0.670100
      3 N2           1.9900     0.0000     1.1900 nz         1 817      -0.731600
      4 N3           1.9920    -0.0000    -1.1940 nu         1 817      -0.813200
      5 C4           6.8890    -0.4620    -3.2690 ca         1 817      -0.116300
      6 C6           8.2770     0.5420    -4.9410 ca         1 817      -0.123000
      7 C7           8.6310    -0.7130    -5.4000 ca         1 817      -0.053000
      8 C10          7.2470    -1.7170    -3.7250 ca         1 817      -0.056000
      9 C1           1.3030     0.0000     0.0000 c2         1 817       0.699100
     10 N4           4.0260    -0.0710    -0.0710 n2         1 817      -1.007100
     11 S1           4.2400    -0.2480    -2.7210 ss         1 817      -0.180300
     12 C3           5.9400    -0.3270    -2.1060 c3         1 817       0.045000
     13 C5           7.4060     0.6670    -3.8740 ca         1 817      -0.078000
     14 C8           8.1150    -1.8420    -4.7940 ca         1 817      -0.174300
     15 F1           9.3830    -3.0800    -6.3730 f          1 817      -0.215633
     16 F2           9.1220    -3.9260    -4.2670 f          1 817      -0.215633
     17 F3           7.3530    -3.8940    -5.7120 f          1 817      -0.215633
     18 HN1         -0.5010    -0.0000    -0.8660 hn         1 817       0.473400
     19 HN21         1.3400     0.0310     1.9510 hn         1 817       0.485467
     20 HN22         2.5420    -0.8320     1.2580 hn         1 817       0.485467
     21 HN3          1.4950     0.0830    -2.0590 hn         1 817       0.508800
     22 H6           8.6820     1.4270    -5.4160 ha         1 817       0.157000
     23 H7           9.3120    -0.8110    -6.2360 ha         1 817       0.167000
     24 H10          6.8430    -2.6030    -3.2490 ha         1 817       0.149000
     25 HN4          5.0240    -0.1390    -0.0730 hn         1 817       0.462400
     26 H31          6.1680     0.5790    -1.5580 h1         1 817       0.079700
     27 H32          6.0470    -1.1820    -1.4500 h1         1 817       0.079700
     28 H5           7.1270     1.6500    -3.5150 ha         1 817       0.141000
     29 C9           8.5010    -3.2100    -5.2950 c3         1 817       0.676200
     30 H23          2.5740     0.8110     1.2390 hn         1 817       0.485467
@<TRIPOS>BOND
     1     1     9 2
     2     1    18 1
     3     2     4 1
     4     2    10 2
     5     2    11 1
     6     3     9 1
     7     3    19 1
     8     3    20 1
     9     4     9 1
    10     4    21 1
    11     5     8 ar
    12     5    12 1
    13     5    13 ar
    14     6     7 ar
    15     6    13 ar
    16     6    22 1
    17     7    14 ar
    18     7    23 1
    19    29    14 1
    20    29    15 1
    21    29    16 1
    22    29    17 1
    23     8    14 ar
    24     8    24 1
    25    10    25 1
    26    11    12 1
    27    12    26 1
    28    12    27 1
    29    13    28 1
    30    30     3 1
@<TRIPOS>SUBSTRUCTURE
     1 817         1 TEMP              0 ****  ****    0 ROOT
