@<TRIPOS>MOLECULE
molecule
   54    56     1     0     0
SMALL
bcc


@<TRIPOS>ATOM
      1 C1           0.0000     0.0000     0.0000 c3         1 819      -0.098100
      2 C2           1.5300     0.0000     0.0000 c3         1 819       0.165400
      3 O3           2.0140     0.0000     1.3690 os         1 819      -0.443900
      4 C4           3.3490     0.0000     1.5440 c          1 819       0.749100
      5 O5           4.0890     0.0010     0.5810 o          1 819      -0.611000
      6 N6           3.8640    -0.0000     2.7910 ns         1 819      -0.576900
      7 C8           5.3160    -0.0000     2.9810 c3         1 819       0.179300
      8 C9           5.6290    -0.0000     4.4560 ca         1 819      -0.109300
      9 C12          5.7710    -1.1980     5.1310 ca         1 819      -0.104500
     10 C13          6.0580    -1.2020     6.4820 ca         1 819      -0.114000
     11 C10          5.7770     1.1980     5.1300 ca         1 819      -0.104500
     12 C11          6.0640     1.2010     6.4810 ca         1 819      -0.114000
     13 C14          6.2020    -0.0000     7.1630 ca         1 819      -0.007200
     14 N15          6.4930    -0.0000     8.5340 na         1 819      -0.239800
     15 C16          7.6450    -0.4300     9.1370 cc         1 819       0.495800
     16 S17          9.0620    -1.0960     8.3280 sh         1 819      -0.337100
     17 N18          7.4970    -0.2530    10.4290 nd         1 819      -0.364000
     18 N20          6.3420     0.2530    10.6780 nd         1 819      -0.322000
     19 C21          5.6810     0.4370     9.5580 cc         1 819       0.448000
     20 C22          4.3240     1.0030     9.4220 ca         1 819      -0.175500
     21 C23          3.3780     0.3670     8.6180 ca         1 819      -0.049000
     22 C24          2.1110     0.8970     8.4930 ca         1 819      -0.130300
     23 C25          1.0900     0.2090     7.6250 c3         1 819      -0.022400
     24 C27          1.6070     0.1420     6.1870 c3         1 819      -0.087100
     25 C26          0.8490    -1.2080     8.1470 c3         1 819      -0.087100
     26 C28          1.7740     2.0650     9.1670 ca         1 819       0.174100
     27 O29          0.5240     2.5820     9.0400 oh         1 819      -0.500100
     28 C31          2.7080     2.7040     9.9690 ca         1 819      -0.291000
     29 C32          3.9800     2.1770    10.1050 ca         1 819       0.195100
     30 O33          4.8940     2.7990    10.8950 oh         1 819      -0.481100
     31 H1          -0.3610    -0.8960     0.4910 hc         1 819       0.048033
     32 H1A         -0.3610     0.8730     0.5300 hc         1 819       0.048033
     33 H1B         -0.3610     0.0230    -1.0210 hc         1 819       0.048033
     34 H2           1.8910     0.8840    -0.5110 h1         1 819       0.050700
     35 H2A          1.8910    -0.8850    -0.5110 h1         1 819       0.050700
     36 HN6          3.2550    -0.0430     3.5840 hn         1 819       0.326500
     37 H8           5.7410     0.8840     2.5220 h1         1 819       0.063200
     38 H8A          5.7410    -0.8850     2.5220 h1         1 819       0.063200
     39 H12          5.6590    -2.1350     4.5990 ha         1 819       0.146500
     40 H13          6.1680    -2.1410     7.0100 ha         1 819       0.153500
     41 H10          5.6690     2.1360     4.5980 ha         1 819       0.146500
     42 H11          6.1780     2.1400     7.0090 ha         1 819       0.153500
     43 HS17        10.0310    -1.2830     9.2160 hs         1 819       0.231800
     44 H23          3.6180    -0.5770     8.1440 ha         1 819       0.149000
     45 H25          0.1610     0.7660     7.6490 hc         1 819       0.074700
     46 H27          2.1060     1.0710     5.9380 hc         1 819       0.036200
     47 H27A         0.7750    -0.0130     5.5110 hc         1 819       0.036200
     48 H27B         2.3070    -0.6800     6.0930 hc         1 819       0.036200
     49 H26         -0.0570    -1.6060     7.7070 hc         1 819       0.036200
     50 H26A         1.6870    -1.8400     7.8800 hc         1 819       0.036200
     51 H26B         0.7450    -1.1830     9.2250 hc         1 819       0.036200
     52 HO29         0.2500     2.9480     9.8640 ho         1 819       0.425000
     53 H31          2.4400     3.6130    10.4940 ha         1 819       0.142000
     54 HO33         4.4600     3.1730    11.6440 ho         1 819       0.427000
@<TRIPOS>BOND
     1     1     2 1
     2     2     3 1
     3     3     4 1
     4     4     5 2
     5     4     6 1
     6     6     7 1
     7     7     8 1
     8     8     9 ar
     9     8    11 ar
    10     9    10 ar
    11    10    13 ar
    12    11    12 ar
    13    12    13 ar
    14    13    14 1
    15    14    15 1
    16    14    19 1
    17    15    16 1
    18    15    17 2
    19    17    18 1
    20    18    19 2
    21    19    20 1
    22    20    21 ar
    23    20    29 ar
    24    21    22 ar
    25    22    23 1
    26    22    26 ar
    27    23    24 1
    28    23    25 1
    29    26    27 1
    30    26    28 ar
    31    28    29 ar
    32    29    30 1
    33     1    31 1
    34     1    32 1
    35     1    33 1
    36     2    34 1
    37     2    35 1
    38     6    36 1
    39     7    37 1
    40     7    38 1
    41     9    39 1
    42    10    40 1
    43    11    41 1
    44    12    42 1
    45    16    43 1
    46    21    44 1
    47    23    45 1
    48    24    46 1
    49    24    47 1
    50    24    48 1
    51    25    49 1
    52    25    50 1
    53    25    51 1
    54    27    52 1
    55    28    53 1
    56    30    54 1
@<TRIPOS>SUBSTRUCTURE
     1 819         1 TEMP              0 ****  ****    0 ROOT
