@<TRIPOS>MOLECULE
molecule
   58    60     1     0     0
SMALL
bcc


@<TRIPOS>ATOM
      1 S            0.0000     0.0000     0.0000 sy         1 81A       1.168300
      2 O4           1.4210     0.0000     0.0000 o          1 81A      -0.575300
      3 O5          -0.7550     0.0000     1.2020 o          1 81A      -0.575300
      4 C16         -0.6670     1.1780    -1.2080 c3         1 81A      -0.251300
      5 C26         -1.6960    -1.8560    -1.0600 ca         1 81A      -0.257500
      6 C25         -2.0030    -3.0850    -1.6160 ca         1 81A      -0.044000
      7 C24         -1.0060    -4.0220    -1.8140 ca         1 81A      -0.115000
      8 C23          0.2980    -3.7310    -1.4580 ca         1 81A      -0.090000
      9 C28          0.6050    -2.5030    -0.9030 ca         1 81A      -0.043000
     10 C27         -0.3910    -1.5640    -0.7080 ca         1 81A      -0.196500
     11 C2          -3.1100    -1.8100    -4.9120 ca         1 81A      -0.036300
     12 C2A         -2.2220    -2.7090    -5.7330 c3         1 81A      -0.048800
     13 C6          -3.4120    -0.3270    -3.0520 ca         1 81A       0.096100
     14 C1          -2.5990    -1.1590    -3.8060 ca         1 81A      -0.167000
     15 C3          -4.4370    -1.6430    -5.2620 ca         1 81A      -0.144000
     16 C5          -4.7420    -0.1580    -3.4010 ca         1 81A      -0.185000
     17 C4          -5.2560    -0.8160    -4.5070 ca         1 81A       0.133100
     18 O8          -2.9070     0.3180    -1.9670 os         1 81A      -0.434800
     19 O21         -2.5760     0.0760     0.3440 o          1 81A      -0.604800
     20 O22         -4.1920    -1.3660    -0.9560 o          1 81A      -0.604800
     21 O7          -6.5590    -0.6530    -4.8530 os         1 81A      -0.287900
     22 C10         -7.1300     0.2430    -3.8980 c3         1 81A       0.146400
     23 C14         -8.6060     0.4730    -4.2310 cx         1 81A      -0.150000
     24 CEA         -9.3990     1.4090    -3.3180 cx         1 81A      -0.102900
     25 CEB         -9.0110     1.8620    -4.7270 cx         1 81A      -0.102900
     26 C15         -9.3430    -0.7320    -4.8200 c3         1 81A       0.123400
     27 O16         -8.4480    -1.4830    -5.6420 os         1 81A      -0.029100
     28 N10         -9.1850    -2.5780    -6.1550 nu         1 81A      -0.686700
     29 C17         -8.5760    -3.4850    -6.9880 c2         1 81A       0.701100
     30 N11         -7.3210    -3.3390    -7.3060 n2         1 81A      -0.744100
     31 N12         -9.2910    -4.5480    -7.4870 nz         1 81A      -0.806600
     32 H161         0.0180     2.0100    -1.3160 h1         1 81A       0.109367
     33 H162        -1.6270     1.5420    -0.8640 h1         1 81A       0.109367
     34 H163        -0.7890     0.6840    -2.1640 h1         1 81A       0.109367
     35 H25         -3.0340    -3.3380    -1.8330 ha         1 81A       0.155000
     36 H24         -1.2520    -4.9960    -2.2190 ha         1 81A       0.137000
     37 H23          1.0740    -4.4740    -1.5920 ha         1 81A       0.145000
     38 H28          1.6220    -2.2850    -0.5990 ha         1 81A       0.173000
     39 H21A        -1.1840    -2.4940    -5.5090 hc         1 81A       0.051033
     40 H22A        -2.4080    -2.5370    -6.7860 hc         1 81A       0.051033
     41 H23A        -2.4350    -3.7440    -5.4930 hc         1 81A       0.051033
     42 H1          -1.5500    -1.2610    -3.5560 ha         1 81A       0.155000
     43 H3          -4.8340    -2.1490    -6.1340 ha         1 81A       0.148000
     44 H5          -5.3660     0.5280    -2.8400 ha         1 81A       0.160000
     45 H101        -7.0460    -0.1840    -2.9060 h1         1 81A       0.062200
     46 H102        -6.6020     1.1890    -3.9290 h1         1 81A       0.062200
     47 H141        -8.8360     1.8620    -2.5100 hc         1 81A       0.089200
     48 H142       -10.4430     1.1540    -3.1800 hc         1 81A       0.089200
     49 H143        -9.8180     1.8840    -5.4490 hc         1 81A       0.089200
     50 H144        -8.2120     2.5910    -4.7790 hc         1 81A       0.089200
     51 H151       -10.1790    -0.3870    -5.4170 h1         1 81A       0.047200
     52 H152        -9.7090    -1.3590    -4.0160 h1         1 81A       0.047200
     53 HE         -10.1590    -2.6680    -5.9430 hn         1 81A       0.464800
     54 HH12        -6.8780    -4.0000    -7.9130 hn         1 81A       0.432400
     55 HH21        -9.5550    -4.3570    -8.4340 hn         1 81A       0.467467
     56 HH22       -10.1130    -4.6870    -6.9330 hn         1 81A       0.467467
     57 H123        -8.7260    -5.3740    -7.4590 hn         1 81A       0.467467
     58 S20         -2.9660    -0.6630    -0.8060 sy         1 81A       1.484800
@<TRIPOS>BOND
     1     1     2 2
     2     1     3 2
     3     1     4 1
     4     1    10 1
     5     4    32 1
     6     4    33 1
     7     4    34 1
     8     5     6 ar
     9     5    10 ar
    10     5    58 1
    11     6     7 ar
    12     6    35 1
    13     7     8 ar
    14     7    36 1
    15     8     9 ar
    16     8    37 1
    17     9    10 ar
    18     9    38 1
    19    11    12 1
    20    11    14 ar
    21    11    15 ar
    22    12    39 1
    23    12    40 1
    24    12    41 1
    25    13    14 ar
    26    13    16 ar
    27    13    18 1
    28    14    42 1
    29    15    17 ar
    30    15    43 1
    31    16    17 ar
    32    16    44 1
    33    17    21 1
    34    18    58 1
    35    58    19 2
    36    58    20 2
    37    21    22 1
    38    22    23 1
    39    22    45 1
    40    22    46 1
    41    23    24 1
    42    23    25 1
    43    23    26 1
    44    24    25 1
    45    24    47 1
    46    24    48 1
    47    25    49 1
    48    25    50 1
    49    26    27 1
    50    26    51 1
    51    26    52 1
    52    27    28 1
    53    28    29 1
    54    28    53 1
    55    29    30 2
    56    29    31 1
    57    30    54 1
    58    31    55 1
    59    31    56 1
    60    57    31 1
@<TRIPOS>SUBSTRUCTURE
     1 81A         1 TEMP              0 ****  ****    0 ROOT
