@<TRIPOS>MOLECULE
81B
   21    21     1     0     0
SMALL
bcc


@<TRIPOS>ATOM
      1 C02          0.0000     0.0000     0.0000 c          1 81B       0.920600
      2 C03          1.4940     0.0000     0.0000 c          1 81B       0.482100
      3 C05          3.6330    -0.0000     1.1670 c3         1 81B       0.019700
      4 C06          4.1620    -1.4480     1.1130 c3         1 81B      -0.040400
      5 C07          5.4170    -1.4280     2.0200 c3         1 81B      -0.026400
      6 C08          4.9910    -0.4860     3.1740 c3         1 81B      -0.026400
      7 C09          4.1600     0.6120     2.4780 c3         1 81B      -0.040400
      8 N04          2.1680     0.0000     1.1670 ns         1 81B      -0.227900
      9 O01         -0.6070     0.0060     1.0500 o          1 81B      -0.869800
     10 O10          2.1010    -0.0010    -1.0510 o          1 81B      -0.665100
     11 O11         -0.6730     0.0000    -1.1660 o          1 81B      -0.869800
     12 H1           4.0090     0.5620     0.3210 h1         1 81B       0.048700
     13 H2           3.4220    -2.1350     1.5070 hc         1 81B       0.019700
     14 H3           4.4330    -1.7130     0.0990 hc         1 81B       0.019700
     15 H4           6.2670    -1.0190     1.4870 hc         1 81B       0.005700
     16 H5           5.6320    -2.4210     2.3970 hc         1 81B       0.005700
     17 H6           5.8620    -0.0540     3.6510 hc         1 81B       0.005700
     18 H7           4.3820    -1.0210     3.8930 hc         1 81B       0.005700
     19 H8           4.7870     1.4680     2.2610 hc         1 81B       0.019700
     20 H9           3.3300     0.9030     3.1100 hc         1 81B       0.019700
     21 H10          1.6670     0.0300     2.0340 hn         1 81B       0.194500
@<TRIPOS>BOND
     1     1     2 1   
     2     1     9 1   
     3     1    11 1   
     4     2     8 1   
     5     2    10 2   
     6     3     4 1   
     7     3     7 1   
     8     3     8 1   
     9     3    12 1   
    10     4     5 1   
    11     4    13 1   
    12     4    14 1   
    13     5     6 1   
    14     5    15 1   
    15     5    16 1   
    16     6     7 1   
    17     6    17 1   
    18     6    18 1   
    19     7    19 1   
    20     7    20 1   
    21     8    21 1   
@<TRIPOS>SUBSTRUCTURE
     1 81B         1 TEMP              0 ****  ****    0 ROOT
