@<TRIPOS>MOLECULE
molecule
   78    81     1     0     0
SMALL
bcc


@<TRIPOS>ATOM
      1 C4           0.0000     0.0000     0.0000 ca         1 81C       0.764200
      2 C5           1.3980     0.0000     0.0000 ca         1 81C      -0.339200
      3 C6           2.0570     0.0000     1.2140 ca         1 81C       0.538200
      4 N1           1.3510    -0.0010     2.3360 nb         1 81C      -0.804000
      5 N3          -0.6440    -0.0000     1.1620 nb         1 81C      -0.846000
      6 C2           0.0260    -0.0010     2.3050 ca         1 81C       0.972900
      7 CAA          2.2890    -0.5320    13.4890 c3         1 81C      -0.095100
      8 CAB         -2.0580     1.8580     7.0060 c3         1 81C       0.131700
      9 CAC         -0.6890     3.6930    -3.7280 c3         1 81C      -0.073100
     10 CAD         -2.3890     3.5280    -1.9040 c3         1 81C      -0.073100
     11 CAL         -4.1000    -0.9450    -0.1580 ca         1 81C      -0.063000
     12 CAM         -4.8520    -0.3700    -1.1660 ca         1 81C      -0.173000
     13 CAN         -2.7250    -0.8210    -0.1630 ca         1 81C      -0.153000
     14 CAO         -4.2300     0.3270    -2.1860 ca         1 81C      -0.012000
     15 CAQ          1.1730    -0.8820     4.7810 ca         1 81C      -0.103000
     16 CAR          0.2010     0.3750     7.0620 ca         1 81C      -0.222000
     17 CAT          4.5680    -4.6920     4.5130 c2         1 81C      -0.128000
     18 CAU          4.3890    -3.6700     5.3460 ce         1 81C      -0.251200
     19 CAV          3.3450     0.7270    10.1060 c3         1 81C       0.160800
     20 CAW          2.0750    -1.2610    10.6490 c3         1 81C       0.160800
     21 CAX          2.5260     0.9000     8.8240 c3         1 81C       0.171800
     22 CAY          1.2560    -1.0870     9.3670 c3         1 81C       0.171800
     23 CBK         -2.0960    -0.1210    -1.1860 ca         1 81C       0.246600
     24 CBL          0.0110    -0.1290     4.7170 ca         1 81C       0.143600
     25 CBM          1.8520    -1.0090     5.9850 ca         1 81C       0.062600
     26 CBN         -0.4760     0.5000     5.8600 ca         1 81C       0.098100
     27 CBP          1.3640    -0.3780     7.1280 ca         1 81C       0.066600
     28 CBQ         -2.8540     0.4500    -2.2000 ca         1 81C      -0.329500
     29 NBC          3.0270    -1.7700     6.0510 ns         1 81C      -0.452100
     30 NBD         -0.6750    -0.0020     3.4990 nu         1 81C      -0.734300
     31 NBE         -0.7040     0.0060    -1.1950 nu         1 81C      -0.780300
     32 NBT          2.5230     0.0560    11.1220 n3         1 81C      -0.734600
     33 NBU          2.0780    -0.4170     8.3500 nh         1 81C      -0.631000
     34 OAG          2.3920    -3.0270     4.3320 o          1 81C      -0.609100
     35 OBF         -1.6160     1.2400     5.7960 os         1 81C      -0.336900
     36 SBV         -2.0620     1.3380    -3.5000 sy         1 81C       1.200300
     37 Cl5          2.2850     0.0000    -1.4930 cl         1 81C      -0.092400
     38 H1           3.1400     0.0000     1.2490 h4         1 81C       0.043100
     39 H2           2.2330    -1.6140    13.4800 hc         1 81C       0.039700
     40 H3           1.3070    -0.1180    13.2940 hc         1 81C       0.039700
     41 H4           2.6360    -0.1960    14.4580 hc         1 81C       0.039700
     42 H5          -2.9700     2.4110     6.8160 h1         1 81C       0.041700
     43 H6          -2.2460     1.0970     7.7530 h1         1 81C       0.041700
     44 H7          -1.2930     2.5360     7.3650 h1         1 81C       0.041700
     45 H8          -0.0190     4.3930    -3.2420 hc         1 81C       0.051367
     46 H9          -1.4770     4.2380    -4.2330 hc         1 81C       0.051367
     47 H10         -0.1350     3.1060    -4.4510 hc         1 81C       0.051367
     48 H11         -2.6780     2.9560    -1.0310 hc         1 81C       0.051367
     49 H12         -3.2550     3.6870    -2.5350 hc         1 81C       0.051367
     50 H13         -1.9890     4.4860    -1.5930 hc         1 81C       0.051367
     51 H14         -4.5910    -1.4900     0.6390 ha         1 81C       0.134000
     52 H15         -5.9310    -0.4670    -1.1580 ha         1 81C       0.135000
     53 H16         -2.1370    -1.2700     0.6280 ha         1 81C       0.170000
     54 H17         -4.8210     0.7750    -2.9750 ha         1 81C       0.159000
     55 H18          1.5520    -1.3720     3.8920 ha         1 81C       0.211000
     56 H19         -0.1780     0.8650     7.9510 ha         1 81C       0.146000
     57 H20          4.0520    -0.7800    12.2860 h1         1 81C       0.033200
     58 H21          3.6610     0.9030    12.6650 h1         1 81C       0.033200
     59 H22          5.4380    -5.3290     4.6160 ha         1 81C       0.130500
     60 H23          3.8430    -4.8890     3.7330 ha         1 81C       0.130500
     61 H25          5.1140    -3.4740     6.1260 ha         1 81C       0.128000
     62 H27          4.2210     0.1250     9.8950 h1         1 81C       0.041450
     63 H28          3.6480     1.7000    10.4730 h1         1 81C       0.041450
     64 H29          1.4600    -1.7280    11.4090 h1         1 81C       0.041450
     65 H30          2.9380    -1.8830    10.4430 h1         1 81C       0.041450
     66 H31          3.1410     1.3660     8.0640 h1         1 81C       0.045200
     67 H32          1.6630     1.5210     9.0290 h1         1 81C       0.045200
     68 H33          0.3820    -0.4840     9.5780 h1         1 81C       0.045200
     69 H34          0.9510    -2.0600     9.0000 h1         1 81C       0.045200
     70 H35         -0.5400     2.4360    -1.9910 h1         1 81C       0.105700
     71 H36          3.7520    -1.5170     6.6920 hn         1 81C       0.338500
     72 H37         -1.6750     0.0480     3.4910 hn         1 81C       0.475800
     73 H38         -0.2100     0.0360    -2.0650 hn         1 81C       0.492800
     74 CAS          3.2490    -0.0620    12.3940 c3         1 81C       0.159800
     75 CBH          3.2070    -2.8060     5.2070 c          1 81C       0.661300
     76 CBR         -1.3090     2.7690    -2.6770 c3         1 81C      -0.188900
     77 OAH         -1.0580     0.4490    -3.9710 o          1 81C      -0.627800
     78 OAI         -3.1280     1.7520    -4.3420 o          1 81C      -0.627800
@<TRIPOS>BOND
     1    10    76 1   
     2     9    76 1   
     3    76    36 1   
     4    78    36 2   
     5    37     2 1   
     6    36    77 2   
     7    36    28 1   
     8    28    14 ar  
     9    28    23 ar  
    10    31    23 1   
    11    31     1 1   
    12     2     3 ar  
    13     2     1 ar  
    14    14    12 ar  
    15    23    13 ar  
    16     3     4 ar  
    17     1     5 ar  
    18    12    11 ar  
    19    13    11 ar  
    20     5     6 ar  
    21     4     6 ar  
    22     6    30 1   
    23    34    75 2   
    24    30    24 1   
    25    75    18 1   
    26    75    29 1   
    27    18    17 2   
    28    15    24 ar  
    29    15    25 ar  
    30    24    26 ar  
    31    29    25 1   
    32    25    27 ar  
    33    26    35 1   
    34    26    16 ar  
    35    35     8 1   
    36    27    16 ar  
    37    27    33 1   
    38    21    33 1   
    39    21    19 1   
    40    33    22 1   
    41    19    32 1   
    42    22    20 1   
    43    32    20 1   
    44    32    74 1   
    45     7    74 1   
    46     3    38 1   
    47     7    39 1   
    48     7    40 1   
    49     7    41 1   
    50     8    42 1   
    51     8    43 1   
    52     8    44 1   
    53     9    45 1   
    54     9    46 1   
    55     9    47 1   
    56    10    48 1   
    57    10    49 1   
    58    10    50 1   
    59    11    51 1   
    60    12    52 1   
    61    13    53 1   
    62    14    54 1   
    63    15    55 1   
    64    16    56 1   
    65    74    57 1   
    66    74    58 1   
    67    17    59 1   
    68    17    60 1   
    69    18    61 1   
    70    19    62 1   
    71    19    63 1   
    72    20    64 1   
    73    20    65 1   
    74    21    66 1   
    75    21    67 1   
    76    22    68 1   
    77    22    69 1   
    78    76    70 1   
    79    29    71 1   
    80    30    72 1   
    81    31    73 1   
@<TRIPOS>SUBSTRUCTURE
     1 81C         1 TEMP              0 ****  ****    0 ROOT
