@<TRIPOS>MOLECULE
81C
   78    81     1     0     0
SMALL
bcc


@<TRIPOS>ATOM
      1 C4           0.0000     0.0000     0.0000 ca         1 81C       0.575200
      2 C5           1.3980     0.0000     0.0000 ca         1 81C      -0.421200
      3 C6           2.0570     0.0000     1.2140 ca         1 81C       0.535200
      4 N1           1.3510    -0.0010     2.3360 nb         1 81C      -0.717000
      5 N3          -0.6440    -0.0000     1.1620 nb         1 81C      -0.746000
      6 C2           0.0260    -0.0010     2.3050 ca         1 81C       0.738900
      7 CAA          2.2890    -0.5320    13.4890 c3         1 81C      -0.003100
      8 CAB         -2.0580     1.8580     7.0060 c3         1 81C       0.248700
      9 CAC         -0.6890     3.6930    -3.7280 c3         1 81C       0.029400
     10 CAD         -2.3890     3.5280    -1.9040 c3         1 81C       0.029400
     11 CAL         -4.1000    -0.9450    -0.1580 ca         1 81C      -0.030000
     12 CAM         -4.8520    -0.3700    -1.1660 ca         1 81C      -0.156000
     13 CAN         -2.7250    -0.8210    -0.1630 ca         1 81C      -0.150000
     14 CAO         -4.2300     0.3270    -2.1860 ca         1 81C       0.024000
     15 CAQ          1.1730    -0.8820     4.7810 ca         1 81C      -0.091000
     16 CAR          0.2010     0.3750     7.0620 ca         1 81C      -0.212000
     17 CAT          4.5680    -4.6920     4.5130 c2         1 81C      -0.054000
     18 CAU          4.3890    -3.6700     5.3460 ce         1 81C      -0.246200
     19 CAV          3.3450     0.7270    10.1060 c3         1 81C       0.150300
     20 CAW          2.0750    -1.2610    10.6490 c3         1 81C       0.150300
     21 CAX          2.5260     0.9000     8.8240 c3         1 81C       0.150800
     22 CAY          1.2560    -1.0870     9.3670 c3         1 81C       0.150800
     23 CBK         -2.0960    -0.1210    -1.1860 ca         1 81C       0.105600
     24 CBL          0.0110    -0.1290     4.7170 ca         1 81C      -0.018400
     25 CBM          1.8520    -1.0090     5.9850 ca         1 81C      -0.082400
     26 CBN         -0.4760     0.5000     5.8600 ca         1 81C       0.115100
     27 CBP          1.3640    -0.3780     7.1280 ca         1 81C      -0.001400
     28 CBQ         -2.8540     0.4500    -2.2000 ca         1 81C      -0.188500
     29 NBC          3.0270    -1.7700     6.0510 ns         1 81C      -0.001100
     30 NBD         -0.6750    -0.0020     3.4990 nu         1 81C      -0.260300
     31 NBE         -0.7040     0.0060    -1.1950 nu         1 81C      -0.347300
     32 NBT          2.5230     0.0560    11.1220 n3         1 81C      -0.547600
     33 NBU          2.0780    -0.4170     8.3500 nh         1 81C      -0.415000
     34 OAG          2.3920    -3.0270     4.3320 o          1 81C      -0.650100
     35 OBF         -1.6160     1.2400     5.7960 os         1 81C      -0.315900
     36 SBV         -2.0620     1.3380    -3.5000 sy         1 81C       0.878300
     37 Cl5          2.2850     0.0000    -1.4930 cl         1 81C       0.009600
     38 H1           3.1400     0.0000     1.2490 h4         1 81C      -0.011900
     39 H2           2.2490    -1.6140    13.4940 hc         1 81C       0.007700
     40 H3           1.3020    -0.1350    13.2820 hc         1 81C       0.007700
     41 H4           2.6250    -0.1780    14.4560 hc         1 81C       0.007700
     42 H5          -2.2440     1.0970     7.7530 h1         1 81C      -0.002300
     43 H6          -2.9720     2.4100     6.8170 h1         1 81C      -0.002300
     44 H7          -1.2940     2.5380     7.3640 h1         1 81C      -0.002300
     45 H8          -0.1320     4.4800    -3.2330 hc         1 81C       0.015533
     46 H9          -1.4780     4.1310    -4.3260 hc         1 81C       0.015533
     47 H10         -0.0220     3.1270    -4.3680 hc         1 81C       0.015533
     48 H11         -3.2760     3.6180    -2.5180 hc         1 81C       0.015533
     49 H12         -2.6330     2.9990    -0.9910 hc         1 81C       0.015533
     50 H13         -2.0160     4.5160    -1.6610 hc         1 81C       0.015533
     51 H14         -4.5910    -1.4900     0.6390 ha         1 81C       0.100000
     52 H15         -5.9310    -0.4670    -1.1580 ha         1 81C       0.108000
     53 H16         -2.1370    -1.2700     0.6280 ha         1 81C       0.148000
     54 H17         -4.8210     0.7750    -2.9750 ha         1 81C       0.130000
     55 H18          1.5520    -1.3720     3.8920 ha         1 81C       0.195000
     56 H19         -0.1780     0.8650     7.9510 ha         1 81C       0.133000
     57 H20          4.0520    -0.7800    12.2860 h1         1 81C       0.007200
     58 H21          3.6610     0.9030    12.6650 h1         1 81C       0.007200
     59 H22          3.8430    -4.8890     3.7330 ha         1 81C       0.091500
     60 H23          5.4380    -5.3290     4.6160 ha         1 81C       0.091500
     61 H25          5.1140    -3.4740     6.1260 ha         1 81C       0.105000
     62 H27          3.6480     1.7000    10.4730 h1         1 81C       0.015200
     63 H28          4.2210     0.1250     9.8960 h1         1 81C       0.015200
     64 H29          2.9380    -1.8830    10.4430 h1         1 81C       0.015200
     65 H30          1.4600    -1.7280    11.4090 h1         1 81C       0.015200
     66 H31          1.6630     1.5210     9.0290 h1         1 81C       0.018950
     67 H32          3.1410     1.3660     8.0640 h1         1 81C       0.018950
     68 H33          0.3810    -0.4840     9.5780 h1         1 81C       0.018950
     69 H34          0.9510    -2.0600     9.0000 h1         1 81C       0.018950
     70 H35         -0.5400     2.4360    -1.9910 h1         1 81C       0.071700
     71 H36          3.7510    -1.5190     6.6950 hn         1 81C       0.177500
     72 H37         -1.6750     0.0520     3.4920 hn         1 81C       0.297800
     73 H38         -0.2100     0.0410    -2.0650 hn         1 81C       0.341800
     74 CAS          3.2490    -0.0620    12.3940 c3         1 81C       0.155800
     75 CBH          3.2070    -2.8060     5.2070 c          1 81C       0.567300
     76 CBR         -1.3090     2.7690    -2.6770 c3         1 81C      -0.018900
     77 OAH         -1.0580     0.4490    -3.9710 o          1 81C      -0.589800
     78 OAI         -3.1280     1.7520    -4.3420 o          1 81C      -0.589800
@<TRIPOS>BOND
     1     1     2 ar  
     2     1     5 ar  
     3     1    31 1   
     4     2     3 ar  
     5     2    37 1   
     6     3     4 ar  
     7     3    38 1   
     8     4     6 ar  
     9     5     6 ar  
    10     6    30 1   
    11     7    39 1   
    12     7    40 1   
    13     7    41 1   
    14     7    74 1   
    15     8    35 1   
    16     8    42 1   
    17     8    43 1   
    18     8    44 1   
    19     9    45 1   
    20     9    46 1   
    21     9    47 1   
    22     9    76 1   
    23    10    48 1   
    24    10    49 1   
    25    10    50 1   
    26    10    76 1   
    27    11    12 ar  
    28    11    13 ar  
    29    11    51 1   
    30    12    14 ar  
    31    12    52 1   
    32    13    23 ar  
    33    13    53 1   
    34    14    28 ar  
    35    14    54 1   
    36    15    24 ar  
    37    15    25 ar  
    38    15    55 1   
    39    16    26 ar  
    40    16    27 ar  
    41    16    56 1   
    42    17    18 2   
    43    17    59 1   
    44    17    60 1   
    45    18    61 1   
    46    18    75 1   
    47    19    21 1   
    48    19    32 1   
    49    19    62 1   
    50    19    63 1   
    51    20    22 1   
    52    20    32 1   
    53    20    64 1   
    54    20    65 1   
    55    21    33 1   
    56    21    66 1   
    57    21    67 1   
    58    22    33 1   
    59    22    68 1   
    60    22    69 1   
    61    23    28 ar  
    62    23    31 1   
    63    24    26 ar  
    64    24    30 1   
    65    25    27 ar  
    66    25    29 1   
    67    26    35 1   
    68    27    33 1   
    69    28    36 1   
    70    29    71 1   
    71    29    75 1   
    72    30    72 1   
    73    31    73 1   
    74    32    74 1   
    75    34    75 2   
    76    36    76 1   
    77    36    77 2   
    78    36    78 2   
    79    57    74 1   
    80    58    74 1   
    81    70    76 1   
@<TRIPOS>SUBSTRUCTURE
     1 81C         1 TEMP              0 ****  ****    0 ROOT
