@<TRIPOS>MOLECULE
molecule
   50    54     1     0     0
SMALL
bcc


@<TRIPOS>ATOM
      1 N3           0.0000     0.0000     0.0000 na         1 81G      -0.032600
      2 C6           0.5990    -0.0060     2.1170 cc         1 81G       0.364200
      3 C7           1.7600     0.0000     1.3140 cd         1 81G      -0.257300
      4 C8           3.1580     0.0050     1.7940 cd         1 81G       0.071900
      5 C10          4.9870     0.6840     3.0280 cc         1 81G       0.116600
      6 C13          7.9060     1.7740     5.0740 c3         1 81G      -0.080900
      7 C15          6.7140     1.6940     7.2690 c3         1 81G       0.202100
      8 C17          5.7510     0.6470     6.7060 c3         1 81G      -0.075400
      9 C20          6.7240     3.0590     9.3670 ca         1 81G      -0.092500
     10 C21          6.0780     3.8170    10.3240 ca         1 81G      -0.169000
     11 C22          4.7130     4.0330    10.2320 ca         1 81G       0.136900
     12 C24          3.9980     3.4890     9.1780 ca         1 81G      -0.169000
     13 C2           1.3480     0.0000     0.0000 cc         1 81G      -0.048600
     14 N5          -0.4410    -0.0010     1.3280 nd         1 81G      -0.510800
     15 C9           3.6580     0.8570     2.7320 cc         1 81G      -0.165000
     16 N11          5.7690     1.4210     3.9410 nu         1 81G      -0.702600
     17 C12          6.9380     0.7300     4.5100 c3         1 81G       0.368600
     18 C14          7.1900     2.6090     6.1380 c3         1 81G      -0.075400
     19 O16          7.8400     1.0390     7.8570 oh         1 81G      -0.604800
     20 C18          6.4690    -0.1860     5.6420 c3         1 81G      -0.080900
     21 C19          6.0080     2.5160     8.3160 ca         1 81G      -0.141300
     22 F23          4.0810     4.7750    11.1670 f          1 81G      -0.139900
     23 C25          4.6460     2.7320     8.2210 ca         1 81G      -0.092500
     24 N26          7.6210    -0.0670     3.4920 ns         1 81G      -0.604900
     25 C27          6.9540    -0.6800     2.4910 c          1 81G       0.756100
     26 O28          7.5060    -1.4890     1.7660 o          1 81G      -0.645500
     27 C29          5.5880    -0.3490     2.3120 cd         1 81G      -0.197700
     28 S30          4.4170    -1.0930     1.2460 ss         1 81G      -0.014800
     29 H1          -0.5860     0.0020    -0.8120 hn         1 81G       0.333700
     30 H2           0.5750    -0.0080     3.2000 h4         1 81G       0.055100
     31 H3           8.7560     1.2730     5.5210 hc         1 81G       0.061450
     32 H4           8.2420     2.4230     4.2740 hc         1 81G       0.061450
     33 H5           5.4180    -0.0020     7.5070 hc         1 81G       0.060200
     34 H6           4.8990     1.1450     6.2600 hc         1 81G       0.060200
     35 H7           7.7920     2.8900     9.4400 ha         1 81G       0.147500
     36 H8           6.6390     4.2420    11.1480 ha         1 81G       0.147000
     37 H9           2.9300     3.6580     9.1040 ha         1 81G       0.147000
     38 H10          1.6360     0.1250    -2.1050 hc         1 81G       0.058367
     39 H11          2.7750    -0.9400    -1.2690 hc         1 81G       0.058367
     40 H12          2.9490     0.8160    -1.1410 hc         1 81G       0.058367
     41 H13          3.0520     1.6180     3.2080 ha         1 81G       0.159000
     42 H14          6.0630     2.2770     3.5140 hn         1 81G       0.384800
     43 H15          6.3360     3.1040     5.6930 hc         1 81G       0.060200
     44 H16          7.8750     3.3470     6.5370 hc         1 81G       0.060200
     45 H17          7.5540     0.5220     8.5920 ho         1 81G       0.409000
     46 H18          5.7860    -0.9280     5.2450 hc         1 81G       0.061450
     47 H19          7.3260    -0.6770     6.0870 hc         1 81G       0.061450
     48 H20          4.0870     2.3060     7.3970 ha         1 81G       0.147500
     49 H21          8.6170    -0.1610     3.5390 hn         1 81G       0.329500
     50 C1           2.2400     0.0000    -1.2140 c3         1 81G      -0.033800
@<TRIPOS>BOND
     1    22    11 1   
     2    10    11 ar  
     3    10     9 ar  
     4    11    12 ar  
     5     9    21 ar  
     6    50    13 1   
     7    12    23 ar  
     8    21    23 ar  
     9    21     7 1   
    10    13     1 1   
    11    13     3 2   
    12     1    14 1   
    13    18     7 1   
    14    18     6 1   
    15     7     8 1   
    16     7    19 1   
    17    15     4 2   
    18    15     5 1   
    19     3     4 1   
    20     3     2 1   
    21    14     2 2   
    22    16     5 1   
    23    16    17 1   
    24     8    20 1   
    25     6    17 1   
    26     4    28 1   
    27     5    27 2   
    28    17    20 1   
    29    17    24 1   
    30    27    28 1   
    31    27    25 1   
    32    24    25 1   
    33    25    26 2   
    34     1    29 1   
    35     2    30 1   
    36     6    31 1   
    37     6    32 1   
    38     8    33 1   
    39     8    34 1   
    40     9    35 1   
    41    10    36 1   
    42    12    37 1   
    43    50    38 1   
    44    50    39 1   
    45    50    40 1   
    46    15    41 1   
    47    16    42 1   
    48    18    43 1   
    49    18    44 1   
    50    19    45 1   
    51    20    46 1   
    52    20    47 1   
    53    23    48 1   
    54    24    49 1   
@<TRIPOS>SUBSTRUCTURE
     1 81G         1 TEMP              0 ****  ****    0 ROOT
