@<TRIPOS>MOLECULE
81G
   50    54     1     0     0
SMALL
bcc


@<TRIPOS>ATOM
      1 N3           0.0000     0.0000     0.0000 na         1 81G       0.470400
      2 C6           0.5990    -0.0060     2.1170 cc         1 81G       0.427200
      3 C7           1.7600     0.0000     1.3140 cc         1 81G      -0.267300
      4 C8           3.1580     0.0050     1.7940 cc         1 81G       0.157900
      5 C10          4.9870     0.6840     3.0280 cd         1 81G       0.031600
      6 C13          7.9060     1.7740     5.0740 c3         1 81G      -0.034400
      7 C15          6.7140     1.6940     7.2690 c3         1 81G       0.231100
      8 C17          5.7510     0.6470     6.7060 c3         1 81G      -0.036400
      9 C20          6.7240     3.0590     9.3670 ca         1 81G      -0.067000
     10 C21          6.0780     3.8170    10.3240 ca         1 81G      -0.133500
     11 C22          4.7130     4.0330    10.2320 ca         1 81G       0.108900
     12 C24          3.9980     3.4890     9.1780 ca         1 81G      -0.133500
     13 C2           1.3480     0.0000     0.0000 cd         1 81G      -0.229600
     14 N5          -0.4410    -0.0010     1.3280 nd         1 81G      -0.667800
     15 C9           3.6580     0.8570     2.7320 cd         1 81G      -0.146000
     16 N11          5.7690     1.4210     3.9410 nu         1 81G      -0.411600
     17 C12          6.9380     0.7300     4.5100 c3         1 81G       0.173600
     18 C14          7.1900     2.6090     6.1380 c3         1 81G      -0.036400
     19 O16          7.8400     1.0390     7.8570 oh         1 81G      -0.588800
     20 C18          6.4690    -0.1860     5.6420 c3         1 81G      -0.034400
     21 C19          6.0080     2.5160     8.3160 ca         1 81G      -0.149300
     22 F23          4.0810     4.7750    11.1670 f          1 81G      -0.127900
     23 C25          4.6460     2.7320     8.2210 ca         1 81G      -0.067000
     24 N26          7.6210    -0.0670     3.4920 ns         1 81G      -0.225900
     25 C27          6.9540    -0.6800     2.4910 c          1 81G       0.687100
     26 O28          7.5060    -1.4890     1.7660 o          1 81G      -0.673500
     27 C29          5.5880    -0.3490     2.3120 cc         1 81G      -0.140700
     28 S30          4.4170    -1.0930     1.2460 ss         1 81G      -0.165800
     29 H1          -0.5860     0.0020    -0.8120 hn         1 81G       0.149700
     30 H2           0.5750    -0.0080     3.2000 h4         1 81G       0.008100
     31 H3           8.7560     1.2730     5.5210 hc         1 81G       0.033450
     32 H4           8.2420     2.4230     4.2740 hc         1 81G       0.033450
     33 H5           5.4180    -0.0020     7.5070 hc         1 81G       0.032950
     34 H6           4.8990     1.1450     6.2600 hc         1 81G       0.032950
     35 H7           7.7920     2.8900     9.4400 ha         1 81G       0.121500
     36 H8           6.6390     4.2420    11.1480 ha         1 81G       0.120000
     37 H9           2.9300     3.6580     9.1040 ha         1 81G       0.120000
     38 H10          1.6360     0.1250    -2.1050 hc         1 81G       0.018700
     39 H11          2.7750    -0.9400    -1.2690 hc         1 81G       0.018700
     40 H12          2.9490     0.8160    -1.1410 hc         1 81G       0.018700
     41 H13          3.0520     1.6180     3.2080 ha         1 81G       0.132000
     42 H14          6.0630     2.2770     3.5140 hn         1 81G       0.270800
     43 H15          6.3360     3.1040     5.6930 hc         1 81G       0.032950
     44 H16          7.8750     3.3470     6.5370 hc         1 81G       0.032950
     45 H17          7.5540     0.5220     8.5920 ho         1 81G       0.399000
     46 H18          5.7860    -0.9280     5.2450 hc         1 81G       0.033450
     47 H19          7.3260    -0.6770     6.0870 hc         1 81G       0.033450
     48 H20          4.0870     2.3060     7.3970 ha         1 81G       0.121500
     49 H21          8.6170    -0.1610     3.5390 hn         1 81G       0.193500
     50 C1           2.2400     0.0000    -1.2140 c3         1 81G       0.090200
@<TRIPOS>BOND
     1     1    13 1   
     2     1    14 1   
     3     1    29 1   
     4     2     3 1   
     5     2    14 2   
     6     2    30 1   
     7     3     4 1   
     8     3    13 2   
     9     4    15 2   
    10     4    28 1   
    11     5    15 1   
    12     5    16 1   
    13     5    27 2   
    14     6    17 1   
    15     6    18 1   
    16     6    31 1   
    17     6    32 1   
    18     7     8 1   
    19     7    18 1   
    20     7    19 1   
    21     7    21 1   
    22     8    20 1   
    23     8    33 1   
    24     8    34 1   
    25     9    10 ar  
    26     9    21 ar  
    27     9    35 1   
    28    10    11 ar  
    29    10    36 1   
    30    11    12 ar  
    31    11    22 1   
    32    12    23 ar  
    33    12    37 1   
    34    13    50 1   
    35    15    41 1   
    36    16    17 1   
    37    16    42 1   
    38    17    20 1   
    39    17    24 1   
    40    18    43 1   
    41    18    44 1   
    42    19    45 1   
    43    20    46 1   
    44    20    47 1   
    45    21    23 ar  
    46    23    48 1   
    47    24    25 1   
    48    24    49 1   
    49    25    26 2   
    50    25    27 1   
    51    27    28 1   
    52    38    50 1   
    53    39    50 1   
    54    40    50 1   
@<TRIPOS>SUBSTRUCTURE
     1 81G         1 TEMP              0 ****  ****    0 ROOT
