@<TRIPOS>MOLECULE
molecule
   21    21     1     0     0
SMALL
bcc


@<TRIPOS>ATOM
      1 C10          0.0000     0.0000     0.0000 c          1 81J       0.885200
      2 C01          7.7680     0.0000    -1.0720 c3         1 81J      -0.094100
      3 C02          6.2520     0.0010    -1.2730 c3         1 81J       0.141400
      4 C04          4.2460     0.0000     0.0000 ca         1 81J       0.105100
      5 C05          3.5520     0.0000     1.2050 ca         1 81J      -0.219000
      6 C06          2.1750     0.0000     1.2100 ca         1 81J      -0.068000
      7 C07          1.4750     0.0010    -0.0000 ca         1 81J      -0.136600
      8 C08          2.1750     0.0010    -1.2100 ca         1 81J      -0.068000
      9 C09          3.5520     0.0060    -1.2050 ca         1 81J      -0.219000
     10 O11         -0.6080     0.0050     1.0520 o          1 81J      -0.842300
     11 O12         -0.6740     0.0000    -1.1680 o          1 81J      -0.842300
     12 H012         8.0590    -0.8840    -0.5190 hc         1 81J       0.037700
     13 H011         8.0590     0.8850    -0.5190 hc         1 81J       0.037700
     14 H013         8.2600     0.0000    -2.0380 hc         1 81J       0.037700
     15 H022         5.9600    -0.8840    -1.8260 h1         1 81J       0.030700
     16 H021         5.9610     0.8850    -1.8260 h1         1 81J       0.030700
     17 H051         4.0960    -0.0000     2.1420 ha         1 81J       0.113000
     18 H061         1.6360     0.0000     2.1490 ha         1 81J       0.151500
     19 H081         1.6360     0.0060    -2.1490 ha         1 81J       0.151500
     20 H091         4.0960     0.0060    -2.1410 ha         1 81J       0.113000
     21 O03          5.6020     0.0010     0.0010 os         1 81J      -0.347900
@<TRIPOS>BOND
     1    10     1 1   
     2     1    11 1   
     3     1     7 1   
     4     8     7 ar  
     5     8     9 ar  
     6     7     6 ar  
     7     9     4 ar  
     8     6     5 ar  
     9     4     5 ar  
    10     4    21 1   
    11     3    21 1   
    12     3     2 1   
    13     2    12 1   
    14     2    13 1   
    15     2    14 1   
    16     3    15 1   
    17     3    16 1   
    18     5    17 1   
    19     6    18 1   
    20     8    19 1   
    21     9    20 1   
@<TRIPOS>SUBSTRUCTURE
     1 81J         1 TEMP              0 ****  ****    0 ROOT
