@<TRIPOS>MOLECULE
molecule
   21    21     1     0     0
SMALL
bcc


@<TRIPOS>ATOM
      1 C10          0.0000     0.0000     0.0000 c          1 81M       0.880200
      2 C01          7.9260     0.0000    -1.9410 c3         1 81M      -0.078100
      3 C02          6.4050    -0.0000    -1.7680 c3         1 81M       0.003700
      4 C04          4.2360     0.0000     0.0000 ca         1 81M       0.018900
      5 C05          3.5400     0.0000     1.2070 ca         1 81M      -0.154500
      6 C06          2.1740     0.0010     1.2110 ca         1 81M      -0.092000
      7 C07          1.4730     0.0000     0.0000 ca         1 81M      -0.099600
      8 C08          2.1740     0.0000    -1.2110 ca         1 81M      -0.092000
      9 C09          3.5400     0.0060    -1.2070 ca         1 81M      -0.154500
     10 O11         -0.6750    -0.0000    -1.1670 o          1 81M      -0.836800
     11 O12         -0.6070    -0.0060     1.0530 o          1 81M      -0.836800
     12 H1           8.3420     0.8850    -1.4740 hc         1 81M       0.037033
     13 H2           8.3420    -0.8840    -1.4740 hc         1 81M       0.037033
     14 H3           8.1690    -0.0000    -2.9960 hc         1 81M       0.037033
     15 H4           5.9880     0.8840    -2.2350 h1         1 81M       0.061200
     16 H5           5.9880    -0.8850    -2.2340 h1         1 81M       0.061200
     17 H6           4.0830     0.0000     2.1440 ha         1 81M       0.111000
     18 H7           1.6340     0.0010     2.1500 ha         1 81M       0.152500
     19 H8           1.6340     0.0050    -2.1500 ha         1 81M       0.152500
     20 H9           4.0840     0.0060    -2.1440 ha         1 81M       0.111000
     21 S03          5.9970     0.0000     0.0000 ss         1 81M      -0.320000
@<TRIPOS>BOND
     1    11     1 1
     2     1    10 1
     3     1     7 1
     4     8     7 ar
     5     8     9 ar
     6     7     6 ar
     7     9     4 ar
     8     6     5 ar
     9     4     5 ar
    10     4    21 1
    11    21     3 1
    12     3     2 1
    13     2    12 1
    14     2    13 1
    15     2    14 1
    16     3    15 1
    17     3    16 1
    18     5    17 1
    19     6    18 1
    20     8    19 1
    21     9    20 1
@<TRIPOS>SUBSTRUCTURE
     1 81M         1 TEMP              0 ****  ****    0 ROOT
