@<TRIPOS>MOLECULE
81P
   19    19     1     0     0
SMALL
bcc


@<TRIPOS>ATOM
      1 C01          0.0000     0.0000     0.0000 c3         1 81P       0.209100
      2 N02          1.4650     0.0000     0.0000 nu         1 81P      -0.454600
      3 C03          2.1610     0.0000     1.2030 ca         1 81P       0.033600
      4 C04          3.5520     0.0010     1.2010 ca         1 81P      -0.220500
      5 C05          4.2420     0.0010     2.3870 ca         1 81P      -0.030000
      6 C06          3.5450     0.0010     3.5990 ca         1 81P      -0.153600
      7 C07          2.1460     0.0000     3.5980 ca         1 81P      -0.030000
      8 C08          1.4630     0.0050     2.4090 ca         1 81P      -0.220500
      9 C09          4.2820     0.0010     4.8750 c          1 81P       0.982200
     10 O10          5.4960     0.0010     4.8750 o          1 81P      -0.893800
     11 O11          3.6080     0.0000     6.0420 o          1 81P      -0.893800
     12 H1          -0.3610    -0.8820     0.5140 h1         1 81P      -0.007967
     13 H2          -0.3610     0.8870     0.5070 h1         1 81P      -0.007967
     14 H3          -0.3610    -0.0040    -1.0210 h1         1 81P      -0.007967
     15 H4           1.9650    -0.0000    -0.8670 hn         1 81P       0.276800
     16 H5           4.0910     0.0020     0.2620 ha         1 81P       0.091500
     17 H6           5.3240    -0.0530     2.3840 ha         1 81P       0.119500
     18 H7           1.6040    -0.0470     4.5340 ha         1 81P       0.119500
     19 H8           0.3790     0.0140     2.4070 ha         1 81P       0.091500
@<TRIPOS>BOND
     1     1     2 1   
     2     1    12 1   
     3     1    13 1   
     4     1    14 1   
     5     2     3 1   
     6     2    15 1   
     7     3     4 ar  
     8     3     8 ar  
     9     4     5 ar  
    10     4    16 1   
    11     5     6 ar  
    12     5    17 1   
    13     6     7 ar  
    14     6     9 1   
    15     7     8 ar  
    16     7    18 1   
    17     8    19 1   
    18     9    10 1   
    19     9    11 1   
@<TRIPOS>SUBSTRUCTURE
     1 81P         1 TEMP              0 ****  ****    0 ROOT
