@<TRIPOS>MOLECULE
molecule
   19    19     1     0     0
SMALL
bcc


@<TRIPOS>ATOM
      1 C01          0.0000     0.0000     0.0000 c3         1 81P       0.237100
      2 N02          1.4650     0.0000     0.0000 nu         1 81P      -0.845600
      3 C03          2.1610     0.0000     1.2030 ca         1 81P       0.170600
      4 C04          3.5520     0.0010     1.2010 ca         1 81P      -0.234500
      5 C05          4.2420     0.0010     2.3870 ca         1 81P      -0.060500
      6 C06          3.5450     0.0010     3.5990 ca         1 81P      -0.152600
      7 C07          2.1460     0.0000     3.5980 ca         1 81P      -0.060500
      8 C08          1.4630     0.0050     2.4090 ca         1 81P      -0.234500
      9 C09          4.2820     0.0010     4.8750 c          1 81P       0.888200
     10 O10          5.4960     0.0010     4.8750 o          1 81P      -0.846800
     11 O11          3.6080     0.0000     6.0420 o          1 81P      -0.846800
     12 H1          -0.3610    -0.8820     0.5140 h1         1 81P       0.021033
     13 H2          -0.3610     0.8870     0.5070 h1         1 81P       0.021033
     14 H3          -0.3610    -0.0040    -1.0210 h1         1 81P       0.021033
     15 H4           1.9650    -0.0000    -0.8670 hn         1 81P       0.421800
     16 H5           4.0910     0.0020     0.2620 ha         1 81P       0.103500
     17 H6           5.3240    -0.0530     2.3840 ha         1 81P       0.147500
     18 H7           1.6040    -0.0470     4.5340 ha         1 81P       0.147500
     19 H8           0.3790     0.0140     2.4070 ha         1 81P       0.103500
@<TRIPOS>BOND
     1    10     9 1   
     2     7     8 ar  
     3     7     6 ar  
     4     9    11 1   
     5     9     6 1   
     6     8     3 ar  
     7     6     5 ar  
     8     3     2 1   
     9     3     4 ar  
    10     5     4 ar  
    11     2     1 1   
    12     1    12 1   
    13     1    13 1   
    14     1    14 1   
    15     2    15 1   
    16     4    16 1   
    17     5    17 1   
    18     7    18 1   
    19     8    19 1   
@<TRIPOS>SUBSTRUCTURE
     1 81P         1 TEMP              0 ****  ****    0 ROOT
