@<TRIPOS>MOLECULE
81U
   25    27     1     0     0
SMALL
bcc


@<TRIPOS>ATOM
      1 OAB          0.0000     0.0000     0.0000 oh         1 81U      -0.491100
      2 CAL          1.3580     0.0000     0.0000 ca         1 81U       0.139100
      3 CAH          2.0230     0.0000     1.1870 ca         1 81U      -0.221300
      4 CAP          3.4340    -0.0070     1.1970 ca         1 81U       0.295300
      5 NAJ          4.1090    -0.0080     2.3410 nb         1 81U      -0.535000
      6 CAN          5.4390    -0.0140     2.3190 ca         1 81U       0.276300
      7 CAF          6.1860    -0.0170     3.5150 ca         1 81U      -0.143300
      8 CAD          7.5440    -0.0240     3.4570 ca         1 81U      -0.088000
      9 CAC          8.2260    -0.0290     2.2410 ca         1 81U      -0.094000
     10 CAE          7.5670    -0.0270     1.0540 ca         1 81U      -0.137300
     11 CAM          6.1560    -0.0200     1.0390 ca         1 81U       0.262300
     12 NAI          5.4810    -0.0180    -0.1070 nb         1 81U      -0.521000
     13 CAO          4.1530    -0.0120    -0.0860 ca         1 81U       0.260300
     14 CAG          3.4090    -0.0110    -1.2830 ca         1 81U      -0.140300
     15 CAK          2.0470    -0.0050    -1.2300 ca         1 81U       0.024600
     16 NAA          1.3190    -0.0100    -2.4190 nv         1 81U      -0.549200
     17 H1          -0.3140     0.7960     0.3960 ho         1 81U       0.406000
     18 H2           1.4740    -0.1020     2.1150 ha         1 81U       0.132000
     19 H3           5.6820    -0.0130     4.4730 ha         1 81U       0.119000
     20 H4           8.1110    -0.0260     4.3800 ha         1 81U       0.104000
     21 H5           9.3090    -0.0340     2.2440 ha         1 81U       0.104000
     22 H6           8.1220    -0.0310     0.1230 ha         1 81U       0.119000
     23 H7           3.9170    -0.0150    -2.2400 ha         1 81U       0.127000
     24 H8           1.0360    -0.8780    -2.8290 hn         1 81U       0.276300
     25 H9           1.1050     0.8530    -2.8780 hn         1 81U       0.276300
@<TRIPOS>BOND
     1     1     2 1   
     2     1    17 1   
     3     2     3 ar  
     4     2    15 ar  
     5     3     4 ar  
     6     3    18 1   
     7     4     5 ar  
     8     4    13 ar  
     9     5     6 ar  
    10     6     7 ar  
    11     6    11 ar  
    12     7     8 ar  
    13     7    19 1   
    14     8     9 ar  
    15     8    20 1   
    16     9    10 ar  
    17     9    21 1   
    18    10    11 ar  
    19    10    22 1   
    20    11    12 ar  
    21    12    13 ar  
    22    13    14 ar  
    23    14    15 ar  
    24    14    23 1   
    25    15    16 1   
    26    16    24 1   
    27    16    25 1   
@<TRIPOS>SUBSTRUCTURE
     1 81U         1 TEMP              0 ****  ****    0 ROOT
