@<TRIPOS>MOLECULE
molecule
   25    27     1     0     0
SMALL
bcc


@<TRIPOS>ATOM
      1 OAB          0.0000     0.0000     0.0000 oh         1 81U      -0.507100
      2 CAL          1.3580     0.0000     0.0000 ca         1 81U       0.118100
      3 CAH          2.0230     0.0000     1.1870 ca         1 81U      -0.227300
      4 CAP          3.4340    -0.0070     1.1970 ca         1 81U       0.325300
      5 NAJ          4.1090    -0.0080     2.3410 nb         1 81U      -0.639000
      6 CAN          5.4390    -0.0140     2.3190 ca         1 81U       0.313300
      7 CAF          6.1860    -0.0170     3.5150 ca         1 81U      -0.163300
      8 CAD          7.5440    -0.0240     3.4570 ca         1 81U      -0.117000
      9 CAC          8.2260    -0.0290     2.2410 ca         1 81U      -0.120000
     10 CAE          7.5670    -0.0270     1.0540 ca         1 81U      -0.160300
     11 CAM          6.1560    -0.0200     1.0390 ca         1 81U       0.306300
     12 NAI          5.4810    -0.0180    -0.1070 nb         1 81U      -0.633000
     13 CAO          4.1530    -0.0120    -0.0860 ca         1 81U       0.306300
     14 CAG          3.4090    -0.0110    -1.2830 ca         1 81U      -0.172300
     15 CAK          2.0470    -0.0050    -1.2300 ca         1 81U       0.165600
     16 NAA          1.3190    -0.0100    -2.4190 nv         1 81U      -0.981200
     17 H1          -0.3140     0.7960     0.3960 ho         1 81U       0.423000
     18 H2           1.4740    -0.1020     2.1150 ha         1 81U       0.160000
     19 H3           5.6820    -0.0130     4.4730 ha         1 81U       0.151000
     20 H4           8.1110    -0.0260     4.3800 ha         1 81U       0.135000
     21 H5           9.3090    -0.0340     2.2440 ha         1 81U       0.135000
     22 H6           8.1220    -0.0310     0.1230 ha         1 81U       0.151000
     23 H7           3.9170    -0.0150    -2.2400 ha         1 81U       0.162000
     24 H8           1.0360    -0.8780    -2.8290 hn         1 81U       0.433800
     25 H9           1.1050     0.8530    -2.8780 hn         1 81U       0.433800
@<TRIPOS>BOND
     1     8     9 ar
     2     8     7 ar
     3     9    10 ar
     4     7     6 ar
     5    10    11 ar
     6     6    11 ar
     7     6     5 ar
     8    11    12 ar
     9     5     4 ar
    10    12    13 ar
    11     4    13 ar
    12     4     3 ar
    13    13    14 ar
    14     3     2 ar
    15    14    15 ar
    16     2    15 ar
    17     2     1 1
    18    15    16 1
    19     1    17 1
    20     3    18 1
    21     7    19 1
    22     8    20 1
    23     9    21 1
    24    10    22 1
    25    14    23 1
    26    16    24 1
    27    16    25 1
@<TRIPOS>SUBSTRUCTURE
     1 81U         1 TEMP              0 ****  ****    0 ROOT
