@<TRIPOS>MOLECULE
molecule
   47    50     1     0     0
SMALL
bcc


@<TRIPOS>ATOM
      1 C9           0.0000     0.0000     0.0000 c3         1 81Y      -0.106100
      2 C7           1.5300     0.0000     0.0000 c3         1 81Y       0.138100
      3 C8           2.0400     0.0000     1.4420 c3         1 81Y      -0.106100
      4 O            2.0060    -1.1670    -0.6750 os         1 81Y      -0.327900
      5 C5           2.1090    -1.0990    -2.0290 ca         1 81Y       0.107100
      6 C4           1.6530     0.0320    -2.7020 ca         1 81Y      -0.168000
      7 C3           1.7510     0.1220    -4.0620 ca         1 81Y      -0.120000
      8 C2           2.3100    -0.9230    -4.7910 ca         1 81Y      -0.052200
      9 N1           2.5410    -1.1260    -6.1300 na         1 81Y      -0.051100
     10 N            3.1400    -2.3760    -6.3110 nc         1 81Y      -0.479100
     11 C6           2.6670    -2.1490    -2.7290 ca         1 81Y      -0.102000
     12 C1           2.7730    -2.0700    -4.1190 ca         1 81Y      -0.197900
     13 C            3.2970    -2.9700    -5.1520 cd         1 81Y       0.408500
     14 C10          3.8940    -4.3070    -4.9280 ca         1 81Y      -0.034900
     15 C14          3.7110    -5.3380    -5.8510 ca         1 81Y      -0.242300
     16 C13          4.2880    -6.5750    -5.6000 ca         1 81Y       0.613200
     17 N2           5.0010    -6.7780    -4.5020 nb         1 81Y      -0.738000
     18 C12          5.1940    -5.8270    -3.6080 ca         1 81Y       0.445200
     19 C11          4.6600    -4.5680    -3.7860 ca         1 81Y      -0.267300
     20 N3           4.1160    -7.6120    -6.5100 nh         1 81Y      -0.697300
     21 C18          2.6890    -7.8760    -6.7440 c3         1 81Y       0.132300
     22 C17          2.5440    -8.9810    -7.7940 c3         1 81Y       0.134900
     23 O1           3.2460   -10.1460    -7.3530 os         1 81Y      -0.424600
     24 C16          4.6390    -9.9250    -7.1160 c3         1 81Y       0.134900
     25 C15          4.8040    -8.8290    -6.0590 c3         1 81Y       0.132300
     26 H9          -0.3610     0.9360    -0.4090 hc         1 81Y       0.047033
     27 H10         -0.3610    -0.8220    -0.6060 hc         1 81Y       0.047033
     28 H8          -0.3610    -0.1130     1.0150 hc         1 81Y       0.047033
     29 H4           1.8910     0.8850    -0.5100 h1         1 81Y       0.044700
     30 H6           3.1230     0.0090     1.4420 hc         1 81Y       0.047033
     31 H7           1.6860    -0.8890     1.9500 hc         1 81Y       0.047033
     32 H5           1.6720     0.8800     1.9550 hc         1 81Y       0.047033
     33 H2           1.2180     0.8510    -2.1420 ha         1 81Y       0.142000
     34 H1           1.3930     1.0080    -4.5730 ha         1 81Y       0.132000
     35 H            2.3170    -0.4800    -6.8610 hn         1 81Y       0.333700
     36 H3           2.8990    -3.0760    -2.2200 ha         1 81Y       0.151000
     37 H13          3.1280    -5.1750    -6.7500 ha         1 81Y       0.156000
     38 H12          5.7860    -6.0360    -2.7250 h4         1 81Y       0.025100
     39 H11          4.8240    -3.7940    -3.0460 ha         1 81Y       0.148000
     40 H20          2.2090    -6.9730    -7.1020 h1         1 81Y       0.058200
     41 H21          2.2250    -8.1950    -5.8180 h1         1 81Y       0.058200
     42 H18          2.9640    -8.6420    -8.7340 h1         1 81Y       0.054950
     43 H19          1.4960    -9.2190    -7.9250 h1         1 81Y       0.054950
     44 H17          5.1160    -9.6120    -8.0370 h1         1 81Y       0.054950
     45 H16          5.0940   -10.8410    -6.7600 h1         1 81Y       0.054950
     46 H15          5.8580    -8.6170    -5.9210 h1         1 81Y       0.058200
     47 H14          4.3710    -9.1630    -5.1230 h1         1 81Y       0.058200
@<TRIPOS>BOND
     1    22    23 1   
     2    22    21 1   
     3    23    24 1   
     4    21    20 1   
     5     9    10 1   
     6     9     8 1   
     7     7     8 ar  
     8     7     6 ar  
     9    10    13 2   
    10     8    12 ar  
    11    24    25 1   
    12     6     5 ar  
    13    20    25 1   
    14    20    16 1   
    15    15    16 ar  
    16    15    14 ar  
    17    13    12 1   
    18    13    14 1   
    19    12    11 ar  
    20    16    17 ar  
    21     5    11 ar  
    22     5     4 1   
    23    14    19 ar  
    24     4     2 1   
    25     1     2 1   
    26    17    18 ar  
    27    19    18 ar  
    28     2     3 1   
    29     1    26 1   
    30     1    27 1   
    31     1    28 1   
    32     2    29 1   
    33     3    30 1   
    34     3    31 1   
    35     3    32 1   
    36     6    33 1   
    37     7    34 1   
    38     9    35 1   
    39    11    36 1   
    40    15    37 1   
    41    18    38 1   
    42    19    39 1   
    43    21    40 1   
    44    21    41 1   
    45    22    42 1   
    46    22    43 1   
    47    24    44 1   
    48    24    45 1   
    49    25    46 1   
    50    25    47 1   
@<TRIPOS>SUBSTRUCTURE
     1 81Y         1 TEMP              0 ****  ****    0 ROOT
