@<TRIPOS>MOLECULE
81Y
   47    50     1     0     0
SMALL
bcc


@<TRIPOS>ATOM
      1 C9           0.0000     0.0000     0.0000 c3         1 81Y      -0.017100
      2 C7           1.5300     0.0000     0.0000 c3         1 81Y       0.163100
      3 C8           2.0400     0.0000     1.4420 c3         1 81Y      -0.017100
      4 O            2.0060    -1.1670    -0.6750 os         1 81Y      -0.300900
      5 C5           2.1090    -1.0990    -2.0290 ca         1 81Y       0.118100
      6 C4           1.6530     0.0320    -2.7020 ca         1 81Y      -0.161000
      7 C3           1.7510     0.1220    -4.0620 ca         1 81Y      -0.073000
      8 C2           2.3100    -0.9230    -4.7910 ca         1 81Y      -0.222200
      9 N1           2.5410    -1.1260    -6.1300 na         1 81Y       0.416900
     10 N            3.1400    -2.3760    -6.3110 nc         1 81Y      -0.615100
     11 C6           2.6670    -2.1490    -2.7290 ca         1 81Y      -0.081000
     12 C1           2.7730    -2.0700    -4.1190 ca         1 81Y      -0.199900
     13 C            3.2970    -2.9700    -5.1520 cd         1 81Y       0.431500
     14 C10          3.8940    -4.3070    -4.9280 ca         1 81Y      -0.033900
     15 C14          3.7110    -5.3380    -5.8510 ca         1 81Y      -0.221300
     16 C13          4.2880    -6.5750    -5.6000 ca         1 81Y       0.487200
     17 N2           5.0010    -6.7780    -4.5020 nb         1 81Y      -0.626000
     18 C12          5.1940    -5.8270    -3.6080 ca         1 81Y       0.430200
     19 C11          4.6600    -4.5680    -3.7860 ca         1 81Y      -0.246300
     20 N3           4.1160    -7.6120    -6.5100 nh         1 81Y      -0.465300
     21 C18          2.6890    -7.8760    -6.7440 c3         1 81Y       0.101300
     22 C17          2.5440    -8.9810    -7.7940 c3         1 81Y       0.211400
     23 O1           3.2460   -10.1460    -7.3530 os         1 81Y      -0.411600
     24 C16          4.6390    -9.9250    -7.1160 c3         1 81Y       0.211400
     25 C15          4.8040    -8.8290    -6.0590 c3         1 81Y       0.101300
     26 H9          -0.3610     0.9360    -0.4090 hc         1 81Y       0.013700
     27 H10         -0.3610    -0.8220    -0.6060 hc         1 81Y       0.013700
     28 H8          -0.3610    -0.1130     1.0150 hc         1 81Y       0.013700
     29 H4           1.8910     0.8850    -0.5100 h1         1 81Y       0.018700
     30 H6           3.1230     0.0090     1.4420 hc         1 81Y       0.013700
     31 H7           1.6860    -0.8890     1.9500 hc         1 81Y       0.013700
     32 H5           1.6720     0.8800     1.9550 hc         1 81Y       0.013700
     33 H2           1.2180     0.8510    -2.1420 ha         1 81Y       0.125000
     34 H1           1.3930     1.0080    -4.5730 ha         1 81Y       0.103000
     35 H            2.3170    -0.4800    -6.8610 hn         1 81Y       0.153700
     36 H3           2.8990    -3.0760    -2.2200 ha         1 81Y       0.123000
     37 H13          3.1280    -5.1750    -6.7500 ha         1 81Y       0.135000
     38 H12          5.7860    -6.0360    -2.7250 h4         1 81Y      -0.020900
     39 H11          4.8240    -3.7940    -3.0460 ha         1 81Y       0.126000
     40 H20          2.2090    -6.9730    -7.1020 h1         1 81Y       0.030450
     41 H21          2.2250    -8.1950    -5.8180 h1         1 81Y       0.030450
     42 H18          2.9640    -8.6420    -8.7340 h1         1 81Y       0.013200
     43 H19          1.4960    -9.2190    -7.9250 h1         1 81Y       0.013200
     44 H17          5.1160    -9.6120    -8.0370 h1         1 81Y       0.013200
     45 H16          5.0940   -10.8410    -6.7600 h1         1 81Y       0.013200
     46 H15          5.8580    -8.6170    -5.9210 h1         1 81Y       0.030450
     47 H14          4.3710    -9.1630    -5.1230 h1         1 81Y       0.030450
@<TRIPOS>BOND
     1     1     2 1   
     2     1    26 1   
     3     1    27 1   
     4     1    28 1   
     5     2     3 1   
     6     2     4 1   
     7     2    29 1   
     8     3    30 1   
     9     3    31 1   
    10     3    32 1   
    11     4     5 1   
    12     5     6 ar  
    13     5    11 ar  
    14     6     7 ar  
    15     6    33 1   
    16     7     8 ar  
    17     7    34 1   
    18     8     9 1   
    19     8    12 ar  
    20     9    10 1   
    21     9    35 1   
    22    10    13 2   
    23    11    12 ar  
    24    11    36 1   
    25    12    13 1   
    26    13    14 1   
    27    14    15 ar  
    28    14    19 ar  
    29    15    16 ar  
    30    15    37 1   
    31    16    17 ar  
    32    16    20 1   
    33    17    18 ar  
    34    18    19 ar  
    35    18    38 1   
    36    19    39 1   
    37    20    21 1   
    38    20    25 1   
    39    21    22 1   
    40    21    40 1   
    41    21    41 1   
    42    22    23 1   
    43    22    42 1   
    44    22    43 1   
    45    23    24 1   
    46    24    25 1   
    47    24    44 1   
    48    24    45 1   
    49    25    46 1   
    50    25    47 1   
@<TRIPOS>SUBSTRUCTURE
     1 81Y         1 TEMP              0 ****  ****    0 ROOT
