@<TRIPOS>MOLECULE
821
   74    77     1     0     0
SMALL
bcc


@<TRIPOS>ATOM
      1 C1           0.0000     0.0000     0.0000 ce         1 821       0.076800
      2 C2           1.3520     0.0000     0.0000 cf         1 821      -0.278600
      3 N3           2.0520     0.0000     1.2110 ns         1 821      -0.057100
      4 C4           2.8870    -1.0160     1.5060 c          1 821       0.544100
      5 C5           3.7290    -0.9590     2.7540 c3         1 821      -0.073100
      6 O9           2.9590    -1.9760     0.7690 o          1 821      -0.636100
      7 C10          2.0870    -0.0000    -1.2730 c          1 821       0.625300
      8 O11          1.4830    -0.1030    -2.3240 o          1 821      -0.656100
      9 N12          3.4290     0.1140    -1.2760 ns         1 821      -0.216900
     10 C14          4.1510     0.2330    -2.5450 c3         1 821      -0.030300
     11 C15          3.6310     1.4440    -3.3210 c3         1 821      -0.039400
     12 C16          3.2500     2.5670    -2.3740 c3         1 821      -0.044400
     13 C19          4.4310     3.1730    -1.6380 c3         1 821      -0.043400
     14 C22          5.0430     2.1660    -0.6630 c3         1 821       0.007000
     15 C25          5.6280     0.4290    -2.2740 c          1 821       0.620500
     16 N26          6.0280     1.3480    -1.3890 n          1 821      -0.142800
     17 O29          6.4500    -0.2420    -2.8610 o          1 821      -0.685500
     18 C30          7.4590     1.5390    -1.1380 c3         1 821       0.110300
     19 C31          7.9000     0.6290    -0.0220 ca         1 821      -0.127300
     20 C34          7.8510     1.0720     1.2870 ca         1 821      -0.085500
     21 C35          8.2490     0.2410     2.3150 ca         1 821      -0.096500
     22 C36          8.7090    -1.0420     2.0300 cp         1 821      -0.031000
     23 C37          8.7610    -1.4810     0.7090 ca         1 821      -0.096500
     24 C38          8.3550    -0.6440    -0.3090 ca         1 821      -0.085500
     25 C43          9.1430    -1.9380     3.1300 cp         1 821      -0.030000
     26 C44          8.8210    -3.2930     3.0970 ca         1 821      -0.093500
     27 C45          9.2320    -4.1230     4.1190 ca         1 821      -0.102000
     28 C46          9.9520    -3.6110     5.1830 ca         1 821      -0.104000
     29 C47         10.2700    -2.2650     5.2250 ca         1 821      -0.102000
     30 C48          9.8690    -1.4280     4.2040 ca         1 821      -0.093500
     31 C56         -0.7360    -0.2210     1.2560 ca         1 821      -0.161800
     32 C57         -0.0520    -0.6320     2.4050 ca         1 821      -0.114000
     33 C58         -0.7410    -0.8410     3.5840 ca         1 821      -0.120000
     34 C59         -2.1070    -0.6450     3.6380 ca         1 821       0.081700
     35 C60         -2.8050    -0.2330     2.4970 ca         1 821      -0.229600
     36 C61         -2.1150    -0.0170     1.3040 ca         1 821       0.004000
     37 C65         -2.8490    -0.8760     4.9290 c3         1 821      -0.119100
     38 C66         -2.8880     0.4040     5.7220 c          1 821       0.979600
     39 O69         -3.5010     0.4370     6.9150 o          1 821      -0.885800
     40 O70         -2.3670     1.4020     5.2830 o          1 821      -0.885800
     41 C71         -4.2610    -0.0250     2.5570 c          1 821       0.690500
     42 O72         -4.8630     0.3310     1.5690 o          1 821      -0.605100
     43 H1          -0.5370     0.0010    -0.9410 ha         1 821       0.127000
     44 H3           1.9700     0.7780     1.8350 hn         1 821       0.186500
     45 H51          4.6720    -1.4610     2.5760 hc         1 821       0.025700
     46 H52          3.2060    -1.4500     3.5660 hc         1 821       0.025700
     47 H53          3.9140     0.0760     3.0180 hc         1 821       0.025700
     48 H12          3.9370     0.0510    -0.4170 hn         1 821       0.196500
     49 H14          4.0080    -0.6640    -3.1360 h1         1 821       0.067700
     50 H151         4.4040     1.7940    -3.9940 hc         1 821       0.037200
     51 H152         2.7590     1.1520    -3.8940 hc         1 821       0.037200
     52 H161         2.5510     2.1780    -1.6420 hc         1 821       0.026700
     53 H162         2.7620     3.3480    -2.9440 hc         1 821       0.026700
     54 H191         5.1830     3.4710    -2.3580 hc         1 821       0.020700
     55 H192         4.0960     4.0430    -1.0850 hc         1 821       0.020700
     56 H221         5.5360     2.6950     0.1430 h1         1 821       0.039200
     57 H222         4.2640     1.5270    -0.2640 h1         1 821       0.039200
     58 H301         8.0170     1.3060    -2.0370 h1         1 821       0.034200
     59 H302         7.6410     2.5690    -0.8570 h1         1 821       0.034200
     60 H34          7.4930     2.0710     1.5060 ha         1 821       0.116000
     61 H35          8.2090     0.5880     3.3400 ha         1 821       0.110500
     62 H37          9.1180    -2.4780     0.4820 ha         1 821       0.110500
     63 H38          8.3950    -0.9840    -1.3370 ha         1 821       0.116000
     64 H44          8.2010    -3.6830     2.2990 ha         1 821       0.110500
     65 H45          8.9870    -5.1780     4.0900 ha         1 821       0.102000
     66 H46         10.2680    -4.2650     5.9860 ha         1 821       0.100000
     67 H47         10.8340    -1.8690     6.0600 ha         1 821       0.102000
     68 H48         10.2560    -0.4160     4.2050 ha         1 821       0.110500
     69 H57          1.0190    -0.7880     2.3700 ha         1 821       0.124000
     70 H58         -0.2060    -1.1600     4.4710 ha         1 821       0.110000
     71 H61         -2.6490     0.3020     0.4170 ha         1 821       0.114000
     72 H651        -3.8600    -1.1970     4.7120 hc         1 821       0.022200
     73 H652        -2.3420    -1.6420     5.5040 hc         1 821       0.022200
     74 H71         -4.7880    -0.1600     3.4940 h4         1 821      -0.009800
@<TRIPOS>BOND
     1     1     2 2   
     2     1    31 1   
     3     1    43 1   
     4     2     3 1   
     5     2     7 1   
     6     3     4 1   
     7     3    44 1   
     8     4     5 1   
     9     4     6 2   
    10     5    45 1   
    11     5    46 1   
    12     5    47 1   
    13     7     8 2   
    14     7     9 1   
    15     9    10 1   
    16     9    48 1   
    17    10    11 1   
    18    10    15 1   
    19    10    49 1   
    20    11    12 1   
    21    11    50 1   
    22    11    51 1   
    23    12    13 1   
    24    12    52 1   
    25    12    53 1   
    26    13    14 1   
    27    13    54 1   
    28    13    55 1   
    29    14    16 1   
    30    14    56 1   
    31    14    57 1   
    32    15    16 1   
    33    15    17 2   
    34    16    18 1   
    35    18    19 1   
    36    18    58 1   
    37    18    59 1   
    38    19    20 ar  
    39    19    24 ar  
    40    20    21 ar  
    41    20    60 1   
    42    21    22 ar  
    43    21    61 1   
    44    22    23 ar  
    45    22    25 1   
    46    23    24 ar  
    47    23    62 1   
    48    24    63 1   
    49    25    26 ar  
    50    25    30 ar  
    51    26    27 ar  
    52    26    64 1   
    53    27    28 ar  
    54    27    65 1   
    55    28    29 ar  
    56    28    66 1   
    57    29    30 ar  
    58    29    67 1   
    59    30    68 1   
    60    31    32 ar  
    61    31    36 ar  
    62    32    33 ar  
    63    32    69 1   
    64    33    34 ar  
    65    33    70 1   
    66    34    35 ar  
    67    34    37 1   
    68    35    36 ar  
    69    35    41 1   
    70    36    71 1   
    71    37    38 1   
    72    37    72 1   
    73    37    73 1   
    74    38    39 1   
    75    38    40 1   
    76    41    42 2   
    77    41    74 1   
@<TRIPOS>SUBSTRUCTURE
     1 821         1 TEMP              0 ****  ****    0 ROOT
