@<TRIPOS>MOLECULE
molecule
   74    77     1     0     0
SMALL
bcc


@<TRIPOS>ATOM
      1 C1           0.0000     0.0000     0.0000 ce         1 821      -0.244200
      2 C2           1.3520     0.0000     0.0000 cf         1 821      -0.030600
      3 N3           2.0520     0.0000     1.2110 ns         1 821      -0.529100
      4 C4           2.8870    -1.0160     1.5060 c          1 821       0.629100
      5 C5           3.7290    -0.9590     2.7540 c3         1 821      -0.179100
      6 O9           2.9590    -1.9760     0.7690 o          1 821      -0.578100
      7 C10          2.0870    -0.0000    -1.2730 c          1 821       0.681300
      8 O11          1.4830    -0.1030    -2.3240 o          1 821      -0.573100
      9 N12          3.4290     0.1140    -1.2760 ns         1 821      -0.594900
     10 C14          4.1510     0.2330    -2.5450 c3         1 821       0.061700
     11 C15          3.6310     1.4440    -3.3210 c3         1 821      -0.089400
     12 C16          3.2500     2.5670    -2.3740 c3         1 821      -0.079400
     13 C19          4.4310     3.1730    -1.6380 c3         1 821      -0.102400
     14 C22          5.0430     2.1660    -0.6630 c3         1 821       0.087000
     15 C25          5.6280     0.4290    -2.2740 c          1 821       0.695500
     16 N26          6.0280     1.3480    -1.3890 n          1 821      -0.483800
     17 O29          6.4500    -0.2420    -2.8610 o          1 821      -0.651500
     18 C30          7.4590     1.5390    -1.1380 c3         1 821       0.152300
     19 C31          7.9000     0.6290    -0.0220 ca         1 821      -0.112300
     20 C34          7.8510     1.0720     1.2870 ca         1 821      -0.112000
     21 C35          8.2490     0.2410     2.3150 ca         1 821      -0.121000
     22 C36          8.7090    -1.0420     2.0300 cp         1 821      -0.037000
     23 C37          8.7610    -1.4810     0.7090 ca         1 821      -0.121000
     24 C38          8.3550    -0.6440    -0.3090 ca         1 821      -0.112000
     25 C43          9.1430    -1.9380     3.1300 cp         1 821      -0.035000
     26 C44          8.8210    -3.2930     3.0970 ca         1 821      -0.116500
     27 C45          9.2320    -4.1230     4.1190 ca         1 821      -0.130000
     28 C46          9.9520    -3.6110     5.1830 ca         1 821      -0.130000
     29 C47         10.2700    -2.2650     5.2250 ca         1 821      -0.130000
     30 C48          9.8690    -1.4280     4.2040 ca         1 821      -0.116500
     31 C56         -0.7360    -0.2210     1.2560 ca         1 821      -0.188800
     32 C57         -0.0520    -0.6320     2.4050 ca         1 821      -0.117000
     33 C58         -0.7410    -0.8410     3.5840 ca         1 821      -0.159000
     34 C59         -2.1070    -0.6450     3.6380 ca         1 821       0.088700
     35 C60         -2.8050    -0.2330     2.4970 ca         1 821      -0.221600
     36 C61         -2.1150    -0.0170     1.3040 ca         1 821      -0.003000
     37 C65         -2.8490    -0.8760     4.9290 c3         1 821      -0.175100
     38 C66         -2.8880     0.4040     5.7220 c          1 821       0.892600
     39 O69         -3.5010     0.4370     6.9150 o          1 821      -0.830800
     40 O70         -2.3670     1.4020     5.2830 o          1 821      -0.830800
     41 C71         -4.2610    -0.0250     2.5570 c          1 821       0.597500
     42 O72         -4.8630     0.3310     1.5690 o          1 821      -0.559100
     43 H1          -0.2070     0.8350     0.6590 ha         1 821       0.315000
     44 H3           1.9760     0.7810     1.8320 hn         1 821       0.333500
     45 H51          4.6820    -1.4390     2.5680 hc         1 821       0.063033
     46 H52          3.8940     0.0750     3.0320 hc         1 821       0.063033
     47 H53          3.2170    -1.4720     3.5590 hc         1 821       0.063033
     48 H12          3.9370     0.0480    -0.4170 hn         1 821       0.323500
     49 H14          4.0080    -0.6640    -3.1360 h1         1 821       0.096700
     50 H151         2.7590     1.1510    -3.8940 hc         1 821       0.063700
     51 H152         4.4040     1.7940    -3.9940 hc         1 821       0.063700
     52 H161         2.7620     3.3480    -2.9440 hc         1 821       0.051200
     53 H162         2.5520     2.1780    -1.6420 hc         1 821       0.051200
     54 H191         4.0960     4.0420    -1.0840 hc         1 821       0.046700
     55 H192         5.1830     3.4720    -2.3580 hc         1 821       0.046700
     56 H221         5.5360     2.6950     0.1430 h1         1 821       0.059200
     57 H222         4.2640     1.5270    -0.2650 h1         1 821       0.059200
     58 H301         7.6410     2.5690    -0.8570 h1         1 821       0.062700
     59 H302         8.0170     1.3060    -2.0370 h1         1 821       0.062700
     60 H34          7.4930     2.0710     1.5060 ha         1 821       0.140000
     61 H35          8.2090     0.5880     3.3400 ha         1 821       0.134500
     62 H37          9.1180    -2.4780     0.4820 ha         1 821       0.134500
     63 H38          8.3950    -0.9840    -1.3370 ha         1 821       0.140000
     64 H44          8.2890    -3.7030     2.2470 ha         1 821       0.135500
     65 H45          8.9890    -5.1790     4.0890 ha         1 821       0.128500
     66 H46         10.2720    -4.2660     5.9840 ha         1 821       0.126000
     67 H47         10.8330    -1.8680     6.0600 ha         1 821       0.128500
     68 H48         10.2520    -0.4140     4.2050 ha         1 821       0.135500
     69 H57          1.0190    -0.7880     2.3700 ha         1 821       0.150000
     70 H58         -0.2060    -1.1590     4.4710 ha         1 821       0.138000
     71 H61         -2.6490     0.3020     0.4170 ha         1 821       0.163000
     72 H651        -2.3420    -1.6420     5.5040 hc         1 821       0.052200
     73 H652        -3.8600    -1.1970     4.7120 hc         1 821       0.052200
     74 H71         -4.7890    -0.1660     3.4920 h4         1 821       0.026200
@<TRIPOS>BOND
     1     1     2 2
     2     1    31 1
     3     1    43 1
     4     2     3 1
     5     2     7 1
     6     3     4 1
     7     3    44 1
     8     4     5 1
     9     4     6 2
    10     5    45 1
    11     5    46 1
    12     5    47 1
    13     7     8 2
    14     7     9 1
    15     9    10 1
    16     9    48 1
    17    10    11 1
    18    10    15 1
    19    10    49 1
    20    11    12 1
    21    11    50 1
    22    11    51 1
    23    12    13 1
    24    12    52 1
    25    12    53 1
    26    13    14 1
    27    13    54 1
    28    13    55 1
    29    14    16 1
    30    14    56 1
    31    14    57 1
    32    15    16 1
    33    15    17 2
    34    16    18 1
    35    18    19 1
    36    18    58 1
    37    18    59 1
    38    19    20 ar
    39    19    24 ar
    40    20    21 ar
    41    20    60 1
    42    21    22 ar
    43    21    61 1
    44    22    23 ar
    45    22    25 1
    46    23    24 ar
    47    23    62 1
    48    24    63 1
    49    25    26 ar
    50    25    30 ar
    51    26    27 ar
    52    26    64 1
    53    27    28 ar
    54    27    65 1
    55    28    29 ar
    56    28    66 1
    57    29    30 ar
    58    29    67 1
    59    30    68 1
    60    31    32 ar
    61    31    36 ar
    62    32    33 ar
    63    32    69 1
    64    33    34 ar
    65    33    70 1
    66    34    35 ar
    67    34    37 1
    68    35    36 ar
    69    35    41 1
    70    36    71 1
    71    37    38 1
    72    37    72 1
    73    37    73 1
    74    38    39 1
    75    38    40 1
    76    41    42 2
    77    41    74 1
@<TRIPOS>SUBSTRUCTURE
     1 821         1 TEMP              0 ****  ****    0 ROOT
