@<TRIPOS>MOLECULE
822
   77    80     1     0     0
SMALL
bcc


@<TRIPOS>ATOM
      1 C1          0.0000    0.0000    0.0000 ca        1 822     -0.173300
      2 C2          1.3830    0.0000    0.0000 ca        1 822     -0.123500
      3 C3          2.0740    0.0000    1.1970 ca        1 822     -0.045000
      4 C4          1.3820    0.0020    2.3940 ca        1 822     -0.090300
      5 C5          0.0000    0.0020    2.3930 ca        1 822     -0.045000
      6 C6         -0.6900    0.0050    1.1960 ca        1 822     -0.123500
      7 C11         2.1370   -0.0010    3.6990 c3        1 822      0.390700
      8 F12         1.3890   -0.6790    4.6680 f         1 822     -0.218300
      9 F13         3.3680   -0.6400    3.5270 f         1 822     -0.218300
     10 P14         2.4150    1.7180    4.2410 p5        1 822      0.571700
     11 O15         3.2430    1.7200    5.4680 o         1 822     -0.424167
     12 O16         3.1780    2.5290    3.0780 o         1 822     -0.424167
     13 O17         1.0000    2.4210    4.5460 o         1 822     -0.424167
     14 C18        -0.7520   -0.0000   -1.3050 c3        1 822      0.015900
     15 C19        -1.0080   -1.4430   -1.7460 c3        1 822     -0.025500
     16 C22        -1.7610   -1.4430   -3.0510 c         1 822     -0.021900
     17 N23        -3.1080   -1.4430   -3.0510 ny        1 822      0.178200
     18 O24        -1.1540   -1.4430   -4.1020 o         1 822     -0.633100
     19 N25         0.2720   -2.1330   -1.9210 ny        1 822      0.117200
     20 C26         1.1700   -1.6740   -2.8150 c         1 822      0.300100
     21 O27         0.9180   -0.6880   -3.4750 o         1 822     -0.407100
     22 C28         2.4860   -2.3840   -2.9950 c3        1 822     -0.056100
     23 C32        -3.8410   -1.4440   -4.3200 c3        1 822     -0.100500
     24 C33        -3.8270   -0.0520   -4.9160 c         1 822      0.625500
     25 N34        -4.1510    1.0020   -4.1590 n         1 822     -0.146800
     26 O37        -3.5300    0.1100   -6.0800 o         1 822     -0.614500
     27 C38        -4.5090    0.8220   -2.7430 c3        1 822      0.005000
     28 C39        -5.8910    0.1710   -2.6660 c3        1 822     -0.056400
     29 C42        -4.1460    2.3450   -4.7430 c3        1 822      0.120300
     30 C43        -2.7800    2.9580   -4.5800 ca        1 822     -0.156300
     31 C46        -5.7810   -1.3410   -2.7360 c3        1 822     -0.052400
     32 C49        -5.2930   -1.8590   -4.0760 c3        1 822     -0.030400
     33 C58        -2.4900    3.7040   -3.4520 ca        1 822     -0.082500
     34 C59        -1.2380    4.2650   -3.2950 ca        1 822     -0.092500
     35 C60        -0.2690    4.0860   -4.2800 cp        1 822     -0.009000
     36 C61        -0.5690    3.3380   -5.4170 ca        1 822     -0.092500
     37 C62        -1.8210    2.7780   -5.5610 ca        1 822     -0.082500
     38 C67         1.0760    4.6910   -4.1200 cp        1 822     -0.032000
     39 C68         2.2120    3.9790   -4.4970 ca        1 822     -0.094000
     40 C69         3.4600    4.5490   -4.3520 ca        1 822     -0.103000
     41 C70         3.5860    5.8190   -3.8190 ca        1 822     -0.092000
     42 C71         2.4630    6.5280   -3.4360 ca        1 822     -0.103000
     43 C72         1.2090    5.9700   -3.5830 ca        1 822     -0.094000
     44 H2          1.9250    0.0320   -0.9380 ha        1 822      0.097000
     45 H3          3.1570   -0.0000    1.1970 ha        1 822      0.134000
     46 H5         -0.5420    0.0060    3.3310 ha        1 822      0.134000
     47 H6         -1.7730    0.0060    1.1960 ha        1 822      0.097000
     48 H181       -1.6980    0.5110   -1.1760 hc        1 822      0.054700
     49 H182       -0.1660    0.5100   -2.0600 hc        1 822      0.054700
     50 H19        -1.5930   -1.9530   -0.9910 hx        1 822      0.037700
     51 H23        -3.3990   -0.6280   -2.5480 hn        1 822      0.218300
     52 H25         0.7260   -2.1360   -1.0280 hn        1 822      0.246300
     53 H281        2.6420   -3.0690   -2.1700 hc        1 822      0.039033
     54 H282        2.4730   -2.9380   -3.9260 hc        1 822      0.039033
     55 H283        3.2890   -1.6580   -3.0180 hc        1 822      0.039033
     56 H32        -3.3780   -2.1370   -5.0110 hx        1 822      0.117700
     57 H381       -3.7790    0.1820   -2.2620 h1        1 822      0.045200
     58 H382       -4.5350    1.7870   -2.2500 h1        1 822      0.045200
     59 H391       -6.4950    0.5220   -3.4940 hc        1 822      0.044200
     60 H392       -6.3630    0.4500   -1.7310 hc        1 822      0.044200
     61 H421       -4.8810    2.9610   -4.2400 h1        1 822      0.040700
     62 H422       -4.3890    2.2810   -5.7970 h1        1 822      0.040700
     63 H461       -6.7580   -1.7660   -2.5380 hc        1 822      0.021700
     64 H462       -5.0920   -1.6720   -1.9680 hc        1 822      0.021700
     65 H491       -5.3600   -2.9400   -4.0850 hc        1 822      0.048200
     66 H492       -5.9160   -1.4510   -4.8630 hc        1 822      0.048200
     67 H58        -3.2440    3.8430   -2.6860 ha        1 822      0.111500
     68 H59        -1.0110    4.8470   -2.4110 ha        1 822      0.117500
     69 H61         0.1510    3.2700   -6.2240 ha        1 822      0.117500
     70 H62        -2.0550    2.1960   -6.4440 ha        1 822      0.111500
     71 H68         2.1120    3.0040   -4.9580 ha        1 822      0.110000
     72 H69         4.3430    4.0030   -4.6620 ha        1 822      0.104000
     73 H70         4.5690    6.2590   -3.6990 ha        1 822      0.104000
     74 H71         2.5670    7.5230   -3.0220 ha        1 822      0.104000
     75 H72         0.4840    6.7740   -3.5500 ha        1 822      0.110000
     76 H232       -3.3990   -2.2560   -2.5470 hn        1 822      0.218300
     77 H252        0.0610   -3.0760   -2.1820 hn        1 822      0.246300
@<TRIPOS>BOND
     1    1    2 ar  
     2    1    6 ar  
     3    1   14 1   
     4    2    3 ar  
     5    2   44 1   
     6    3    4 ar  
     7    3   45 1   
     8    4    5 ar  
     9    4    7 1   
    10    5    6 ar  
    11    5   46 1   
    12    6   47 1   
    13    7    8 1   
    14    7    9 1   
    15    7   10 1   
    16   10   11 1   
    17   10   12 1   
    18   10   13 1   
    19   14   15 1   
    20   14   48 1   
    21   14   49 1   
    22   15   16 1   
    23   15   19 1   
    24   15   50 1   
    25   16   17 1   
    26   16   18 2   
    27   17   23 1   
    28   17   51 1   
    29   17   76 1   
    30   19   20 1   
    31   19   52 1   
    32   19   77 1   
    33   20   21 2   
    34   20   22 1   
    35   22   53 1   
    36   22   54 1   
    37   22   55 1   
    38   23   24 1   
    39   23   32 1   
    40   23   56 1   
    41   24   25 1   
    42   24   26 2   
    43   25   27 1   
    44   25   29 1   
    45   27   28 1   
    46   27   57 1   
    47   27   58 1   
    48   28   31 1   
    49   28   59 1   
    50   28   60 1   
    51   29   30 1   
    52   29   61 1   
    53   29   62 1   
    54   30   33 ar  
    55   30   37 ar  
    56   31   32 1   
    57   31   63 1   
    58   31   64 1   
    59   32   65 1   
    60   32   66 1   
    61   33   34 ar  
    62   33   67 1   
    63   34   35 ar  
    64   34   68 1   
    65   35   36 ar  
    66   35   38 1   
    67   36   37 ar  
    68   36   69 1   
    69   37   70 1   
    70   38   39 ar  
    71   38   43 ar  
    72   39   40 ar  
    73   39   71 1   
    74   40   41 ar  
    75   40   72 1   
    76   41   42 ar  
    77   41   73 1   
    78   42   43 ar  
    79   42   74 1   
    80   43   75 1   
@<TRIPOS>SUBSTRUCTURE
     1 822         1 TEMP              0 ****  ****    0 ROOT
