@<TRIPOS>MOLECULE
824
   37    41     1     0     0
SMALL
bcc


@<TRIPOS>ATOM
      1 O3           0.0000     0.0000     0.0000 oh         1 824      -0.496100
      2 C19          1.3600     0.0000     0.0000 ca         1 824       0.093100
      3 C20          2.0540     0.0000     1.2050 ca         1 824      -0.098000
      4 C18          3.4320     0.0000     1.2200 ca         1 824      -0.104000
      5 C16          4.1440     0.0010     0.0240 ca         1 824      -0.192200
      6 C15          3.4450     0.0010    -1.1930 cp         1 824      -0.070000
      7 C17          2.0500    -0.0040    -1.1980 ca         1 824      -0.073000
      8 C13          4.4590     0.0020    -2.2590 cp         1 824      -0.017000
      9 C14          5.7140     0.0020    -1.6150 ca         1 824      -0.158200
     10 N2           5.5010     0.0010    -0.2510 na         1 824       0.332700
     11 C4           4.3910     0.0010    -3.6530 ca         1 824      -0.099600
     12 C5           3.2870     0.0010    -4.6320 c          1 824       0.647100
     13 O1           2.1020     0.0010    -4.3650 o          1 824      -0.621500
     14 C3           5.5780     0.0030    -4.4110 ca         1 824      -0.203600
     15 C6           5.1580     0.0020    -5.8230 c          1 824       0.651100
     16 O2           5.9010     0.0030    -6.7840 o          1 824      -0.616500
     17 N1           3.8130     0.0020    -5.8700 ns         1 824      -0.169500
     18 C2           6.8190     0.0020    -3.7630 cp         1 824       0.083000
     19 C1           6.8800     0.0020    -2.3710 ca         1 824      -0.116000
     20 C7           8.0690     0.0020    -4.5580 cp         1 824      -0.060000
     21 C8           9.0760     0.9260    -4.2790 ca         1 824      -0.071000
     22 C9          10.2370     0.9210    -5.0230 ca         1 824      -0.103500
     23 C10         10.4050     0.0030    -6.0440 ca         1 824      -0.092000
     24 C11          9.4100    -0.9160    -6.3260 ca         1 824      -0.103500
     25 C12          8.2460    -0.9250    -5.5850 ca         1 824      -0.071000
     26 HO3         -0.3140     0.8880    -0.0490 ho         1 824       0.401000
     27 H20          1.5060    -0.0010     2.1400 ha         1 824       0.113000
     28 H18          3.9620     0.0000     2.1640 ha         1 824       0.104000
     29 H17          1.5120    -0.1060    -2.1330 ha         1 824       0.146000
     30 HN2          6.2240     0.0010     0.4410 hn         1 824       0.122700
     31 HN1          3.2760     0.0020    -6.7150 hn         1 824       0.200500
     32 H1           7.8420    -0.0030    -1.8740 ha         1 824       0.116000
     33 H8           8.9460     1.6460    -3.4800 ha         1 824       0.108000
     34 H9          11.0200     1.6380    -4.8080 ha         1 824       0.103000
     35 H10         11.3180     0.0050    -6.6270 ha         1 824       0.101000
     36 H11          9.5470    -1.6340    -7.1250 ha         1 824       0.103000
     37 H12          7.4670    -1.6450    -5.8060 ha         1 824       0.108000
@<TRIPOS>BOND
     1     1     2 1   
     2     1    26 1   
     3     2     3 ar  
     4     2     7 ar  
     5     3     4 ar  
     6     3    27 1   
     7     4     5 ar  
     8     4    28 1   
     9     5     6 ar  
    10     5    10 1   
    11     6     7 ar  
    12     6     8 1   
    13     7    29 1   
    14     8     9 ar  
    15     8    11 ar  
    16     9    10 1   
    17     9    19 ar  
    18    10    30 1   
    19    11    12 1   
    20    11    14 ar  
    21    12    13 2   
    22    12    17 1   
    23    14    15 1   
    24    14    18 ar  
    25    15    16 2   
    26    15    17 1   
    27    17    31 1   
    28    18    19 ar  
    29    18    20 1   
    30    19    32 1   
    31    20    21 ar  
    32    20    25 ar  
    33    21    22 ar  
    34    21    33 1   
    35    22    23 ar  
    36    22    34 1   
    37    23    24 ar  
    38    23    35 1   
    39    24    25 ar  
    40    24    36 1   
    41    25    37 1   
@<TRIPOS>SUBSTRUCTURE
     1 824         1 TEMP              0 ****  ****    0 ROOT
