@<TRIPOS>MOLECULE
molecule
   46    48     1     0     0
SMALL
bcc


@<TRIPOS>ATOM
      1 O57          0.0000     0.0000     0.0000 o          1 825      -0.540100
      2 C56          1.2130     0.0000     0.0000 c          1 825       0.584700
      3 C55          1.9490     0.0040    -1.2740 ca         1 825      -0.163600
      4 C62          1.2540     0.0090    -2.4880 ca         1 825      -0.077500
      5 C61          1.9500     0.0140    -3.6780 ca         1 825      -0.150500
      6 C60          3.3340     0.0140    -3.6740 ca         1 825      -0.115000
      7 C59          4.0290     0.0090    -2.4770 ca         1 825      -0.150500
      8 C58          3.3470     0.0090    -1.2790 ca         1 825      -0.077500
      9 C20          1.9660     0.0000     1.3050 c3         1 825      -0.110400
     10 C4           2.2180     1.4210     1.7390 ca         1 825      -0.070300
     11 C3           3.5140     1.8730     1.9090 ca         1 825      -0.113500
     12 C2           3.7440     3.1760     2.3070 ca         1 825      -0.119500
     13 C5           1.1540     2.2750     1.9620 ca         1 825      -0.113500
     14 C6           1.3840     3.5790     2.3590 ca         1 825      -0.119500
     15 C1           2.6800     4.0280     2.5360 ca         1 825      -0.119000
     16 C44          1.1380    -0.7200     2.3720 c3         1 825      -0.005100
     17 C36          1.9420    -0.8270     3.6430 ca         1 825      -0.126300
     18 C37          2.7550    -1.9240     3.8560 ca         1 825      -0.154000
     19 C38          3.4930    -2.0220     5.0220 ca         1 825       0.002100
     20 Br1          4.6060    -3.5230     5.3130 br         1 825      -0.144100
     21 C39          3.4150    -1.0220     5.9740 ca         1 825      -0.058300
     22 C40          2.6010     0.0750     5.7600 ca         1 825      -0.041000
     23 C35          1.8690     0.1740     4.5930 ca         1 825      -0.131000
     24 C45          4.2180    -1.1290     7.2450 c3         1 825       0.318700
     25 F46          3.7750    -2.2300     7.9860 f          1 825      -0.257300
     26 F47          5.5710    -1.2930     6.9300 f          1 825      -0.257300
     27 P48          4.0030     0.3910     8.2290 p5         1 825       0.980700
     28 O49          2.4420     0.5990     8.5610 o          1 825      -0.870500
     29 O50          4.7650     0.2730     9.4920 o          1 825      -0.870500
     30 O51          4.5470     1.6530     7.3910 o          1 825      -0.870500
     31 H62          0.1710     0.0100    -2.4930 ha         1 825       0.150000
     32 H61          1.4130     0.0180    -4.6190 ha         1 825       0.125500
     33 H60          3.8760     0.0160    -4.6120 ha         1 825       0.118000
     34 H59          5.1130     0.0100    -2.4810 ha         1 825       0.125500
     35 H58          3.8930     0.0050    -0.3430 ha         1 825       0.150000
     36 H20          2.9120    -0.5110     1.1770 hc         1 825       0.072700
     37 H3           4.3480     1.2060     1.7300 ha         1 825       0.131000
     38 H2           4.7590     3.5290     2.4430 ha         1 825       0.126000
     39 H5           0.1390     1.9230     1.8230 ha         1 825       0.131000
     40 H6           0.5500     4.2470     2.5360 ha         1 825       0.126000
     41 H1           2.8610     5.0500     2.8480 ha         1 825       0.123000
     42 H44          0.2310    -0.1600     2.5640 hc         1 825       0.046200
     43 H44A         0.8830    -1.7130     2.0210 hc         1 825       0.046200
     44 H37          2.7880    -2.7230     3.1250 ha         1 825       0.102000
     45 H40          2.5420     0.8590     6.5050 ha         1 825       0.246000
     46 H35          1.2310     1.0340     4.4260 ha         1 825       0.123000
@<TRIPOS>BOND
     1     1     2 2   
     2     3     2 1   
     3     2     9 1   
     4     8     3 ar  
     5     4     3 ar  
     6     5     4 ar  
     7     4    31 1   
     8     6     5 ar  
     9     5    32 1   
    10     6     7 ar  
    11     6    33 1   
    12     7     8 ar  
    13     7    34 1   
    14     8    35 1   
    15    10     9 1   
    16     9    16 1   
    17     9    36 1   
    18    13    10 ar  
    19    11    10 ar  
    20    12    11 ar  
    21    11    37 1   
    22    15    12 ar  
    23    12    38 1   
    24    14    13 ar  
    25    13    39 1   
    26    15    14 ar  
    27    14    40 1   
    28    15    41 1   
    29    16    17 1   
    30    16    42 1   
    31    16    43 1   
    32    18    17 ar  
    33    17    23 ar  
    34    18    19 ar  
    35    18    44 1   
    36    20    19 1   
    37    19    21 ar  
    38    21    22 ar  
    39    21    24 1   
    40    23    22 ar  
    41    22    45 1   
    42    23    46 1   
    43    25    24 1   
    44    24    26 1   
    45    24    27 1   
    46    29    27 1   
    47    27    30 1   
    48    27    28 1   
@<TRIPOS>SUBSTRUCTURE
     1 825         1 TEMP              0 ****  ****    0 ROOT
