@<TRIPOS>MOLECULE
825
   46    47     1     0     0
SMALL
bcc


@<TRIPOS>ATOM
      1 O57        -0.2170    0.0440   -0.3340 o         1 825     -0.314000
      2 C56         0.9980    0.1460   -0.1190 c2        1 825      0.279000
      3 C55         1.9700   -0.1200   -1.2150 ca        1 825     -0.139000
      4 C62         1.6300   -1.0340   -2.2210 ca        1 825     -0.084000
      5 C61         2.5250   -1.3070   -3.2530 ca        1 825     -0.149000
      6 C60         3.7610   -0.6610   -3.2950 ca        1 825     -0.121000
      7 C59         4.1000    0.2580   -2.3010 ca        1 825     -0.149000
      8 C58         3.2100    0.5270   -1.2620 ca        1 825     -0.084000
      9 C20         1.5800    0.4890    1.2330 c3        1 825     -0.124000
     10 C4          1.5990    1.9640    1.4780 ca        1 825     -0.050000
     11 C3          2.3850    2.4510    2.5340 ca        1 825     -0.124500
     12 C2          2.4500    3.8190    2.7880 ca        1 825     -0.140500
     13 C5          0.8660    2.8680    0.7020 ca        1 825     -0.124500
     14 C6          0.9360    4.2370    0.9580 ca        1 825     -0.140500
     15 C1          1.7310    4.7160    1.9970 ca        1 825     -0.150000
     16 C44         0.8340   -0.2670    2.3520 c3        1 825     -0.034000
     17 C36         1.7090   -0.5360    3.5090 ca        1 825     -0.351000
     18 C37         2.7300   -1.4890    3.4360 ca        1 825     -0.013000
     19 C38         3.5890   -1.7420    4.4890 ca        1 825     -0.302000
     20 BR1         4.8740   -3.0890    4.2100 br        1 825     -0.042000
     21 C39         3.4780   -1.0140    5.7260 ca        1 825      0.049000
     22 C40         2.3690   -0.0780    5.7940 ca        1 825     -0.234000
     23 C35         1.5390    0.1480    4.7370 ca        1 825     -0.059000
     24 C45         4.3020   -1.0970    6.8160 c2        1 825     -0.024000
     25 F46         4.1780   -0.3960    7.9740 f         1 825     -0.130000
     26 F47         5.4020   -1.8360    7.0870 f         1 825     -0.130000
     27 P48         6.1890   -1.1430    9.5160 p3        1 825      2.399000
     28 O49         5.0440   -1.4780   10.3870 o         1 825     -1.136667
     29 O50         7.1540   -2.2080    9.1690 o         1 825     -1.136667
     30 O51         6.5740    0.2670    9.3030 o         1 825     -1.136667
     31 H62         0.6490   -1.5330   -2.1820 ha        1 825      0.150000
     32 H61         2.2570   -2.0340   -4.0330 ha        1 825      0.125500
     33 H60         4.4690   -0.8800   -4.1060 ha        1 825      0.119000
     34 H59         5.0750    0.7650   -2.3290 ha        1 825      0.125500
     35 H58         3.4820    1.2500   -0.4760 ha        1 825      0.150000
     36 H20         2.6490    0.1190    1.2560 hc        1 825      0.129000
     37 H3          2.9180    1.7300    3.1830 ha        1 825      0.159500
     38 H2          3.0650    4.1870    3.6230 ha        1 825      0.122500
     39 H5          0.2160    2.5010   -0.1080 ha        1 825      0.159500
     40 H6          0.3560    4.9370    0.3410 ha        1 825      0.122500
     41 H1          1.7860    5.7950    2.1980 ha        1 825      0.112000
     42 H44         0.4610   -1.2330    1.9150 hc        1 825      0.065500
     43 H44A       -0.0640    0.3300    2.6560 hc        1 825      0.065500
     44 H37         2.8430   -2.0540    2.4950 ha        1 825      0.087000
     45 H40         2.2280    0.4510    6.7470 ha        1 825      0.120000
     46 H35         0.7150    0.8720    4.8280 ha        1 825      0.084000
@<TRIPOS>BOND
     1    1    2 1   
     2    2    3 1   
     3    2    9 1   
     4    3    4 1   
     5    3    8 1   
     6    4    5 1   
     7    4   31 1   
     8    5    6 1   
     9    5   32 1   
    10    6    7 1   
    11    6   33 1   
    12    7    8 1   
    13    7   34 1   
    14    8   35 1   
    15    9   10 1   
    16    9   16 1   
    17    9   36 1   
    18   10   11 1   
    19   10   13 1   
    20   11   12 1   
    21   11   37 1   
    22   12   15 1   
    23   12   38 1   
    24   13   14 1   
    25   13   39 1   
    26   14   15 1   
    27   14   40 1   
    28   15   41 1   
    29   16   17 1   
    30   16   42 1   
    31   16   43 1   
    32   17   18 1   
    33   17   23 1   
    34   18   19 1   
    35   18   44 1   
    36   19   20 1   
    37   19   21 1   
    38   21   22 1   
    39   21   24 1   
    40   22   23 1   
    41   22   45 1   
    42   23   46 1   
    43   24   25 1   
    44   24   26 1   
    45   27   28 1   
    46   27   29 1   
    47   27   30 1   
@<TRIPOS>SUBSTRUCTURE
     1 825         1 TEMP              0 ****  ****    0 ROOT
