@<TRIPOS>MOLECULE
molecule
   52    56     1     0     0
SMALL
bcc


@<TRIPOS>ATOM
      1 O01          0.0000     0.0000     0.0000 oh         1 826      -0.519100
      2 C02          1.3610     0.0000     0.0000 ca         1 826       0.113100
      3 C03          2.0580     0.0000     1.2080 ca         1 826      -0.156500
      4 C04          3.4530    -0.0010     1.2080 ca         1 826      -0.088000
      5 C05          4.1450    -0.0010     0.0010 ca         1 826      -0.148600
      6 C06          3.4540    -0.0000    -1.2080 ca         1 826      -0.088000
      7 C07          2.0580    -0.0000    -1.2090 ca         1 826      -0.156500
      8 C08          5.6160    -0.0010     0.0010 c          1 826       0.689700
      9 O09          6.1620     1.1010     0.0090 o          1 826      -0.574100
     10 N10          6.2770    -1.2360     0.0010 n          1 826      -0.502800
     11 C11          7.7540    -1.2580     0.0660 c3         1 826       0.101000
     12 C12          8.3640    -2.0130    -1.1280 c3         1 826      -0.021200
     13 C13          7.6520    -3.3040    -1.3250 cc         1 826      -0.131400
     14 C14          6.3900    -3.5130    -0.8110 cd         1 826      -0.088300
     15 C15          5.5890    -2.5530    -0.0070 c3         1 826       0.189200
     16 N16          5.9890    -4.7730    -1.1510 na         1 826      -0.052400
     17 C17          6.9750    -5.3910    -1.8900 ca         1 826      -0.034200
     18 C18          8.0350    -4.4860    -2.0160 ca         1 826      -0.079800
     19 C19          9.1800    -4.8800    -2.7380 ca         1 826      -0.079000
     20 C20          9.2230    -6.1590    -3.3060 ca         1 826      -0.157000
     21 C21          8.1530    -7.0390    -3.1640 ca         1 826      -0.109000
     22 C22          7.0080    -6.6720    -2.4520 ca         1 826      -0.148000
     23 C23          4.7190    -5.3720    -0.7950 c3         1 826       0.092600
     24 C24          4.8050    -6.1020     0.5180 ca         1 826      -0.130300
     25 C25          4.5310    -5.4230     1.6970 ca         1 826      -0.098000
     26 C26          4.6110    -6.0990     2.9140 ca         1 826      -0.151000
     27 C27          4.9650    -7.4490     2.9410 ca         1 826       0.114100
     28 O28          5.0460    -8.1090     4.1280 oh         1 826      -0.519100
     29 C29          5.2390    -8.1210     1.7500 ca         1 826      -0.151000
     30 C30          5.1590    -7.4450     0.5320 ca         1 826      -0.098000
     31 HO1         -0.3140    -0.8890    -0.0010 ho         1 826       0.419000
     32 HC3          1.5160     0.0000     2.1460 ha         1 826       0.145500
     33 HC4          3.9950    -0.0010     2.1450 ha         1 826       0.144500
     34 HC6          3.9980    -0.0010    -2.1440 ha         1 826       0.144500
     35 HC7          1.5170     0.0000    -2.1470 ha         1 826       0.145500
     36 H111         8.0590    -1.7460     0.9840 h1         1 826       0.061200
     37 H112         8.1220    -0.2390     0.0620 h1         1 826       0.061200
     38 H121         9.4110    -2.2070    -0.9320 hc         1 826       0.057700
     39 H122         8.2660    -1.4090    -2.0220 hc         1 826       0.057700
     40 H151         5.4980    -2.9200     1.0080 h1         1 826       0.056700
     41 H152         4.6050    -2.4440    -0.4490 h1         1 826       0.056700
     42 H19         10.0160    -4.2010    -2.8530 ha         1 826       0.133000
     43 H20         10.1000    -6.4670    -3.8620 ha         1 826       0.131000
     44 H21          8.2090    -8.0240    -3.6120 ha         1 826       0.129000
     45 H22          6.1740    -7.3550    -2.3400 ha         1 826       0.127000
     46 H231         4.4280    -6.0710    -1.5700 h1         1 826       0.063200
     47 H232         3.9690    -4.5950    -0.7200 h1         1 826       0.063200
     48 H25          4.2560    -4.3750     1.6720 ha         1 826       0.135500
     49 H26          4.3990    -5.5770     3.8390 ha         1 826       0.144000
     50 H28          4.2070    -8.4870     4.3350 ho         1 826       0.421000
     51 H29          5.5150    -9.1680     1.7700 ha         1 826       0.144000
     52 H30          5.3710    -7.9630    -0.3960 ha         1 826       0.135500
@<TRIPOS>BOND
     1     1     2 1
     2     1    31 1
     3     2     3 ar
     4     2     7 ar
     5     3     4 ar
     6     3    32 1
     7     4     5 ar
     8     4    33 1
     9     5     6 ar
    10     5     8 1
    11     6     7 ar
    12     6    34 1
    13     7    35 1
    14     8     9 2
    15     8    10 1
    16    10    11 1
    17    10    15 1
    18    11    12 1
    19    11    36 1
    20    11    37 1
    21    12    13 1
    22    12    38 1
    23    12    39 1
    24    13    14 2
    25    13    18 1
    26    14    15 1
    27    14    16 1
    28    15    40 1
    29    15    41 1
    30    16    17 1
    31    16    23 1
    32    17    18 ar
    33    17    22 ar
    34    18    19 ar
    35    19    20 ar
    36    19    42 1
    37    20    21 ar
    38    20    43 1
    39    21    22 ar
    40    21    44 1
    41    22    45 1
    42    23    24 1
    43    23    46 1
    44    23    47 1
    45    24    25 ar
    46    24    30 ar
    47    25    26 ar
    48    25    48 1
    49    26    27 ar
    50    26    49 1
    51    27    28 1
    52    27    29 ar
    53    28    50 1
    54    29    30 ar
    55    29    51 1
    56    30    52 1
@<TRIPOS>SUBSTRUCTURE
     1 826         1 TEMP              0 ****  ****    0 ROOT
