@<TRIPOS>MOLECULE
829
   43    45     1     0     0
SMALL
bcc


@<TRIPOS>ATOM
      1 N1           0.0000     0.0000     0.0000 n          1 829       0.129000
      2 C2           1.3460     0.0000     0.0000 c          1 829       0.673900
      3 O2           1.9460    -0.0010    -1.0620 o          1 829      -0.569500
      4 N3           2.0330     0.0000     1.1410 nc         1 829      -0.476100
      5 C4           1.4060     0.0000     2.3100 cd         1 829       0.265500
      6 N4           2.1280     0.0010     3.4810 nz         1 829       0.200400
      7 C5          -0.0030     0.0000     2.3440 cd         1 829      -0.381600
      8 C6          -0.6880     0.0070     1.1760 cc         1 829       0.002600
      9 C07          0.3840    -3.7850    -5.2730 c          1 829       0.599700
     10 C08         -0.9990    -5.6720    -4.3740 ca         1 829      -0.182800
     11 C09         -1.3350    -7.0110    -4.3850 ca         1 829       0.400700
     12 C1'         -0.7290     0.0010    -1.2700 c3         1 829       0.188500
     13 N10         -0.7350    -7.8530    -5.2020 nb         1 829      -0.557000
     14 C11          0.2050    -7.4640    -6.0400 ca         1 829       0.400700
     15 C12          0.6040    -6.1430    -6.0940 ca         1 829      -0.182800
     16 C13         -0.0090    -5.2140    -5.2500 ca         1 829      -0.128600
     17 O15          1.2520    -3.4070    -6.0350 o          1 829      -0.632100
     18 C2'         -0.4030     1.2770    -2.0770 c3         1 829       0.119100
     19 O2'         -1.4300     2.2560    -1.9040 oh         1 829      -0.549800
     20 C3'         -0.3580     0.7940    -3.5440 c3         1 829       0.156100
     21 O3'         -1.3570     1.4570    -4.3210 oh         1 829      -0.548800
     22 C4'         -0.6630    -0.7180    -3.4500 c3         1 829       0.152100
     23 O4'         -0.2820    -1.0890    -2.1070 os         1 829      -0.385600
     24 C5'          0.1700    -1.4940    -4.4730 c3         1 829       0.054000
     25 N5'         -0.2210    -2.9060    -4.4490 ns         1 829      -0.205900
     26 HN4          1.8990    -0.8140     4.0150 hn         1 829       0.222800
     27 HN4A         3.1060    -0.0010     3.2710 hn         1 829       0.222800
     28 H5          -0.5300     0.0030     3.2910 ha         1 829       0.153000
     29 H6          -1.7710     0.0070     1.1770 h4         1 829       0.162000
     30 H1'         -1.7960    -0.0720    -1.0990 h2         1 829       0.065700
     31 H11          0.6740    -8.1910    -6.6930 h4         1 829      -0.014400
     32 H12          1.3780    -5.8300    -6.7860 ha         1 829       0.121000
     33 H2'          0.5600     1.6740    -1.7820 h1         1 829       0.035700
     34 HO2'        -1.0390     3.0870    -1.6900 ho         1 829       0.399000
     35 H3'          0.6270     0.9540    -3.9640 h1         1 829       0.037700
     36 HO3'        -0.9410     1.9850    -4.9830 ho         1 829       0.403000
     37 H4'         -1.7200    -0.8970    -3.6020 h1         1 829       0.048700
     38 H5'          1.2210    -1.4060    -4.2250 h1         1 829       0.044200
     39 H5'A        -0.0030    -1.0880    -5.4630 h1         1 829       0.044200
     40 HN5'        -0.9140    -3.2230    -3.8010 hn         1 829       0.182500
     41 H08         -1.4960    -4.9860    -3.6990 ha         1 829       0.121000
     42 H43          1.9150     0.8280     4.0030 hn         1 829       0.222800
     43 H09         -2.1020    -7.3760    -3.7120 h4         1 829      -0.014400
@<TRIPOS>BOND
     1     1     2 1   
     2     1     8 1   
     3     1    12 1   
     4     2     3 2   
     5     2     4 1   
     6     4     5 2   
     7     5     6 1   
     8     5     7 1   
     9     6    26 1   
    10     6    27 1   
    11     6    42 1   
    12     7     8 2   
    13     7    28 1   
    14     8    29 1   
    15     9    16 1   
    16     9    17 2   
    17     9    25 1   
    18    10    11 ar  
    19    10    16 ar  
    20    10    41 1   
    21    11    13 ar  
    22    11    43 1   
    23    12    18 1   
    24    12    23 1   
    25    12    30 1   
    26    13    14 ar  
    27    14    15 ar  
    28    14    31 1   
    29    15    16 ar  
    30    15    32 1   
    31    18    19 1   
    32    18    20 1   
    33    18    33 1   
    34    19    34 1   
    35    20    21 1   
    36    20    22 1   
    37    20    35 1   
    38    21    36 1   
    39    22    23 1   
    40    22    24 1   
    41    22    37 1   
    42    24    25 1   
    43    24    38 1   
    44    24    39 1   
    45    25    40 1   
@<TRIPOS>SUBSTRUCTURE
     1 829         1 TEMP              0 ****  ****    0 ROOT
