@<TRIPOS>MOLECULE
molecule
   43    45     1     0     0
SMALL
bcc


@<TRIPOS>ATOM
      1 N1           0.0000     0.0000     0.0000 n          1 829      -0.316000
      2 C2           1.3460     0.0000     0.0000 c          1 829       0.824900
      3 O2           1.9460    -0.0010    -1.0620 o          1 829      -0.524500
      4 N3           2.0330     0.0000     1.1410 nc         1 829      -0.630100
      5 C4           1.4060     0.0000     2.3100 cd         1 829       0.573500
      6 N4           2.1280     0.0010     3.4810 nz         1 829      -0.741600
      7 C5          -0.0030     0.0000     2.3440 cd         1 829      -0.433600
      8 C6          -0.6880     0.0070     1.1760 cc         1 829       0.136600
      9 C07          0.3840    -3.7850    -5.2730 c          1 829       0.675700
     10 C08         -0.9990    -5.6720    -4.3740 ca         1 829      -0.216800
     11 C09         -1.3350    -7.0110    -4.3850 ca         1 829       0.418700
     12 C1'         -0.7290     0.0010    -1.2700 c3         1 829       0.279500
     13 N10         -0.7350    -7.8530    -5.2020 nb         1 829      -0.669000
     14 C11          0.2050    -7.4640    -6.0400 ca         1 829       0.418700
     15 C12          0.6040    -6.1430    -6.0940 ca         1 829      -0.216800
     16 C13         -0.0090    -5.2140    -5.2500 ca         1 829      -0.111600
     17 O15          1.2520    -3.4070    -6.0350 o          1 829      -0.592100
     18 C2'         -0.4030     1.2770    -2.0770 c3         1 829       0.088100
     19 O2'         -1.4300     2.2560    -1.9040 oh         1 829      -0.571800
     20 C3'         -0.3580     0.7940    -3.5440 c3         1 829       0.117100
     21 O3'         -1.3570     1.4570    -4.3210 oh         1 829      -0.567800
     22 C4'         -0.6630    -0.7180    -3.4500 c3         1 829       0.107100
     23 O4'         -0.2820    -1.0890    -2.1070 os         1 829      -0.393600
     24 C5'          0.1700    -1.4940    -4.4730 c3         1 829       0.124000
     25 N5'         -0.2210    -2.9060    -4.4490 ns         1 829      -0.586900
     26 HN4          1.8990    -0.8140     4.0150 hn         1 829       0.478133
     27 HN4A         3.1060    -0.0010     3.2710 hn         1 829       0.478133
     28 H5          -0.5300     0.0030     3.2910 ha         1 829       0.175000
     29 H6          -1.7710     0.0070     1.1770 h4         1 829       0.205000
     30 H1'         -1.7960    -0.0720    -1.0990 h2         1 829       0.103700
     31 H11          0.6740    -8.1910    -6.6930 h4         1 829       0.031600
     32 H12          1.3780    -5.8300    -6.7860 ha         1 829       0.146500
     33 H2'          0.5600     1.6740    -1.7820 h1         1 829       0.070700
     34 HO2'        -1.0390     3.0870    -1.6900 ho         1 829       0.416000
     35 H3'          0.6270     0.9540    -3.9640 h1         1 829       0.074700
     36 HO3'        -0.9410     1.9850    -4.9830 ho         1 829       0.419000
     37 H4'         -1.7200    -0.8970    -3.6020 h1         1 829       0.084700
     38 H5'          1.2210    -1.4060    -4.2250 h1         1 829       0.075700
     39 H5'A        -0.0030    -1.0880    -5.4630 h1         1 829       0.075700
     40 HN5'        -0.9140    -3.2230    -3.8010 hn         1 829       0.320500
     41 H08         -1.4960    -4.9860    -3.6990 ha         1 829       0.146500
     42 H43          1.9150     0.8280     4.0030 hn         1 829       0.478133
     43 H09         -2.1020    -7.3760    -3.7120 h4         1 829       0.031600
@<TRIPOS>BOND
     1     8     1 1   
     2     1    12 1   
     3     1     2 1   
     4     4     2 1   
     5     2     3 2   
     6     5     4 2   
     7     7     5 1   
     8     6     5 1   
     9     6    26 1   
    10     6    27 1   
    11     7     8 2   
    12     7    28 1   
    13     8    29 1   
    14    17     9 2   
    15    16     9 1   
    16     9    25 1   
    17    11    10 ar  
    18    16    10 ar  
    19    10    41 1   
    20    13    11 ar  
    21    11    43 1   
    22    18    12 1   
    23    12    23 1   
    24    12    30 1   
    25    14    13 ar  
    26    14    15 ar  
    27    14    31 1   
    28    15    16 ar  
    29    15    32 1   
    30    20    18 1   
    31    18    19 1   
    32    18    33 1   
    33    19    34 1   
    34    21    20 1   
    35    20    22 1   
    36    20    35 1   
    37    21    36 1   
    38    24    22 1   
    39    22    23 1   
    40    22    37 1   
    41    25    24 1   
    42    24    38 1   
    43    24    39 1   
    44    25    40 1   
    45    42     6 1   
@<TRIPOS>SUBSTRUCTURE
     1 829         1 TEMP              0 ****  ****    0 ROOT
