@<TRIPOS>MOLECULE
molecule
   48    51     1     0     0
SMALL
bcc


@<TRIPOS>ATOM
      1 C11          0.0000     0.0000     0.0000 cc         1 82A      -0.105300
      2 C14          2.2580     0.0020    -1.1490 cd         1 82A       0.423800
      3 N16          3.9360     0.3420    -2.3620 na         1 82A      -0.014600
      4 C18          3.0680    -0.3370    -3.1650 cc         1 82A      -0.125300
      5 C19          1.9580    -0.5740    -2.3960 cd         1 82A      -0.235300
      6 C20          0.7980    -1.2700    -2.8780 ca         1 82A       0.008000
      7 C21          0.7130    -2.6560    -2.7460 ca         1 82A      -0.110000
      8 C22         -0.4120    -3.3340    -3.2150 ca         1 82A      -0.123000
      9 C23         -1.4530    -2.6250    -3.8160 ca         1 82A      -0.122000
     10 C24         -1.3680    -1.2400    -3.9480 ca         1 82A       0.015400
     11 C26         -0.2420    -0.5620    -3.4790 ca         1 82A      -0.120000
     12 C27          1.8610    -1.4460     6.2570 ca         1 82A      -0.117300
     13 C29          0.7870    -3.1900     7.5020 ca         1 82A      -0.164000
     14 C30          1.8460    -4.0480     7.2020 ca         1 82A       0.145900
     15 C2           3.0830     0.7700     6.2300 c3         1 82A       0.133400
     16 C3           1.8680    -0.0230     5.7410 c3         1 82A       0.169000
     17 N5           1.7910    -0.0010     4.2980 ns         1 82A      -0.571900
     18 O7          -0.5230    -0.0220     4.1510 o          1 82A      -0.631100
     19 C8           0.6750    -0.0010     2.1360 cc         1 82A      -0.184900
     20 C9           1.8050     0.0000     1.3480 cd         1 82A      -0.122000
     21 C10          1.3750     0.0000     0.0000 cd         1 82A      -0.215500
     22 N12         -0.4160    -0.0000     1.3060 na         1 82A      -0.121100
     23 N15          3.4690     0.5640    -1.1220 nc         1 82A      -0.494800
     24 Cl25        -2.6510    -0.3660    -4.6900 cl         1 82A      -0.102400
     25 C28          0.7950    -1.8790     7.0260 ca         1 82A      -0.073000
     26 C32          2.9120    -3.5940     6.4250 ca         1 82A      -0.024600
     27 Cl33         4.2210    -4.6460     6.0500 cl         1 82A      -0.081400
     28 C34          2.9190    -2.2820     5.9490 ca         1 82A      -0.086000
     29 H11         -0.6390     0.0010    -0.8750 h4         1 82A       0.185000
     30 HN16         4.8390     0.6470    -2.6680 hn         1 82A       0.317700
     31 H18          3.2240    -0.6290    -4.1970 h4         1 82A       0.183000
     32 H21          1.5220    -3.2060    -2.2790 ha         1 82A       0.143000
     33 H22         -0.4780    -4.4100    -3.1120 ha         1 82A       0.139000
     34 H23         -2.3260    -3.1510    -4.1800 ha         1 82A       0.144000
     35 H26         -0.1760     0.5150    -3.5820 ha         1 82A       0.150000
     36 H29         -0.0410    -3.5430     8.1050 ha         1 82A       0.154000
     37 HO1          3.6020     2.6520     6.2150 ho         1 82A       0.407000
     38 H21A         3.9900     0.3030     5.8670 h1         1 82A       0.030700
     39 H22A         3.0920     0.7860     7.3130 h1         1 82A       0.030700
     40 H3           0.9820     0.4680     6.1240 h1         1 82A       0.087700
     41 HN5          2.6500     0.0170     3.7850 hn         1 82A       0.314500
     42 H9           2.8310    -0.0000     1.6950 ha         1 82A       0.158000
     43 HN12        -1.3710    -0.0000     1.6070 hn         1 82A       0.317700
     44 H28         -0.0240    -1.2080     7.2550 ha         1 82A       0.155000
     45 H34          3.7440    -1.9230     5.3450 ha         1 82A       0.148000
     46 C6           0.5870    -0.0010     3.5620 c          1 82A       0.711700
     47 F31          1.8240    -5.3050     7.6660 f          1 82A      -0.123900
     48 O1           3.0030     2.1030     5.7360 oh         1 82A      -0.600800
@<TRIPOS>BOND
     1     1    22 1
     2     1    21 2
     3     1    29 1
     4     2    21 1
     5     2    23 2
     6     2     5 1
     7     3    23 1
     8     3     4 1
     9     3    30 1
    10     4     5 2
    11     4    31 1
    12     5     6 1
    13     6    11 ar
    14     6     7 ar
    15     7     8 ar
    16     7    32 1
    17     8     9 ar
    18     8    33 1
    19     9    10 ar
    20     9    34 1
    21    10    24 1
    22    10    11 ar
    23    11    35 1
    24    12    28 ar
    25    12    25 ar
    26    12    16 1
    27    13    14 ar
    28    13    25 ar
    29    13    36 1
    30    14    47 1
    31    14    26 ar
    32    48    15 1
    33    48    37 1
    34    15    16 1
    35    15    38 1
    36    15    39 1
    37    16    17 1
    38    16    40 1
    39    17    46 1
    40    17    41 1
    41    46    18 2
    42    46    19 1
    43    19    22 1
    44    19    20 2
    45    20    21 1
    46    20    42 1
    47    22    43 1
    48    25    44 1
    49    26    27 1
    50    26    28 ar
    51    28    45 1
@<TRIPOS>SUBSTRUCTURE
     1 82A         1 TEMP              0 ****  ****    0 ROOT
