@<TRIPOS>MOLECULE
82B
   66    71     1     0     0
SMALL
bcc


@<TRIPOS>ATOM
      1 O22          0.0000     0.0000     0.0000 o          1 82B      -0.708100
      2 C20          1.2150     0.0000     0.0000 c          1 82B       0.616100
      3 N21          1.8890     0.0000     1.1680 ns         1 82B      -0.197900
      4 C24          1.1570    -0.0010     2.4360 c3         1 82B       0.090000
      5 C25          0.7980    -1.4150     2.8090 ca         1 82B      -0.107300
      6 C30         -0.4390    -1.6940     3.3590 ca         1 82B      -0.086000
      7 C29         -0.7680    -2.9920     3.7000 ca         1 82B      -0.099500
      8 C28          0.1410    -4.0120     3.4920 ca         1 82B      -0.099000
      9 C27          1.3790    -3.7350     2.9420 ca         1 82B      -0.099500
     10 C26          1.7050    -2.4370     2.5960 ca         1 82B      -0.086000
     11 C23          2.0330     0.6090     3.5320 c3         1 82B       0.139800
     12 N31          2.4810     1.9450     3.1150 n3         1 82B      -0.551600
     13 C36          3.5170     2.4670     4.0310 c3         1 82B       0.148800
     14 C35          3.3150     3.9910     4.1190 c3         1 82B      -0.028900
     15 C34          2.0900     4.2880     3.2260 c3         1 82B      -0.028900
     16 C33          1.3630     2.9210     3.1670 c3         1 82B       0.148800
     17 N8           1.8900    -0.0050    -1.1670 n          1 82B      -0.131800
     18 C4           1.3040    -0.0100    -2.5100 cx         1 82B      -0.071900
     19 C19          0.0120    -0.7780    -2.7930 cx         1 82B      -0.071400
     20 C18          0.0100     0.7520    -2.8010 cx         1 82B      -0.071400
     21 C7           3.3470     0.0020    -1.3310 c3         1 82B       0.169300
     22 C6           3.6430    -0.0070    -2.8080 cc         1 82B      -0.418600
     23 C5           2.4340    -0.0150    -3.5070 cc         1 82B       0.409600
     24 N1           2.7000    -0.0190    -4.7900 nd         1 82B      -0.621800
     25 C3           4.6550    -0.0080    -3.7210 cd         1 82B      -0.206700
     26 N2           4.0900    -0.0200    -4.9550 na         1 82B       0.440400
     27 N9           6.0200     0.0010    -3.4380 ns         1 82B       0.032900
     28 C10          6.9160    -0.0020    -4.4440 c          1 82B       0.632700
     29 O12          6.5380    -0.1070    -5.5970 o          1 82B      -0.692100
     30 C11          8.3480     0.1240    -4.1520 cc         1 82B      -0.400900
     31 N16          9.3600     0.2390    -5.0780 na         1 82B       0.530900
     32 C32          9.1900     0.2580    -6.5320 c3         1 82B      -0.035400
     33 C15         10.5420     0.3320    -4.4180 cc         1 82B      -0.288300
     34 C14         10.3040     0.2800    -3.0850 cd         1 82B      -0.047900
     35 Br          11.6080     0.3690    -1.7180 br         1 82B      -0.087100
     36 C13          8.9230     0.1540    -2.9000 cd         1 82B      -0.112000
     37 H21          2.8900    -0.0190     1.1680 hn         1 82B       0.176500
     38 H24          0.2520     0.5850     2.3300 h1         1 82B       0.063700
     39 H231         2.8960    -0.0240     3.7000 h1         1 82B       0.019700
     40 H232         1.4610     0.6900     4.4490 h1         1 82B       0.019700
     41 H30         -1.1520    -0.8940     3.5220 ha         1 82B       0.103000
     42 H26          2.6750    -2.2190     2.1650 ha         1 82B       0.103000
     43 H29         -1.7380    -3.2100     4.1310 ha         1 82B       0.102000
     44 H28         -0.1160    -5.0300     3.7610 ha         1 82B       0.101000
     45 H27          2.0900    -4.5350     2.7770 ha         1 82B       0.102000
     46 H361         3.3980     2.0230     5.0120 h1         1 82B       0.015450
     47 H362         4.5020     2.2480     3.6370 h1         1 82B       0.015450
     48 H331         0.7670     2.7690     4.0580 h1         1 82B       0.015450
     49 H332         0.7550     2.8520     2.2740 h1         1 82B       0.015450
     50 H351         3.1130     4.2840     5.1420 hc         1 82B       0.019450
     51 H352         4.1890     4.5070     3.7390 hc         1 82B       0.019450
     52 H341         1.4560     5.0380     3.6840 hc         1 82B       0.019450
     53 H342         2.4040     4.5960     2.2360 hc         1 82B       0.019450
     54 H71C         3.7280    -0.9230    -0.9150 h1         1 82B       0.015700
     55 H72C         3.7170     0.9370    -0.9290 h1         1 82B       0.015700
     56 H191        -0.0480    -1.2500    -3.7670 hc         1 82B       0.062700
     57 H192        -0.4550    -1.2420    -1.9330 hc         1 82B       0.062700
     58 H181        -0.0500     1.2140    -3.7790 hc         1 82B       0.062700
     59 H182        -0.4570     1.2230    -1.9450 hc         1 82B       0.062700
     60 H2           4.5790     0.0380    -5.8270 hn         1 82B       0.198700
     61 H9           6.3340    -0.0210    -2.4880 hn         1 82B       0.184500
     62 H13          8.4050     0.0860    -1.9510 ha         1 82B       0.131000
     63 H321        10.1590     0.3540    -7.0080 h1         1 82B       0.035700
     64 H322         8.7210    -0.6640    -6.8530 h1         1 82B       0.035700
     65 H323         8.5660     1.0970    -6.8130 h1         1 82B       0.035700
     66 H15         11.5160     0.4330    -4.8810 h4         1 82B       0.158000
@<TRIPOS>BOND
     1     1     2 2   
     2     2     3 1   
     3     2    17 1   
     4     3     4 1   
     5     3    37 1   
     6     4     5 1   
     7     4    11 1   
     8     4    38 1   
     9     5     6 ar  
    10     5    10 ar  
    11     6     7 ar  
    12     6    41 1   
    13     7     8 ar  
    14     7    43 1   
    15     8     9 ar  
    16     8    44 1   
    17     9    10 ar  
    18     9    45 1   
    19    10    42 1   
    20    11    12 1   
    21    11    39 1   
    22    11    40 1   
    23    12    13 1   
    24    12    16 1   
    25    13    14 1   
    26    13    46 1   
    27    13    47 1   
    28    14    15 1   
    29    14    50 1   
    30    14    51 1   
    31    15    16 1   
    32    15    52 1   
    33    15    53 1   
    34    16    48 1   
    35    16    49 1   
    36    17    18 1   
    37    17    21 1   
    38    18    19 1   
    39    18    20 1   
    40    18    23 1   
    41    19    20 1   
    42    19    56 1   
    43    19    57 1   
    44    20    58 1   
    45    20    59 1   
    46    21    22 1   
    47    21    54 1   
    48    21    55 1   
    49    22    23 1   
    50    22    25 2   
    51    23    24 2   
    52    24    26 1   
    53    25    26 1   
    54    25    27 1   
    55    26    60 1   
    56    27    28 1   
    57    27    61 1   
    58    28    29 2   
    59    28    30 1   
    60    30    31 1   
    61    30    36 2   
    62    31    32 1   
    63    31    33 1   
    64    32    63 1   
    65    32    64 1   
    66    32    65 1   
    67    33    34 2   
    68    33    66 1   
    69    34    35 1   
    70    34    36 1   
    71    36    62 1   
@<TRIPOS>SUBSTRUCTURE
     1 82B         1 TEMP              0 ****  ****    0 ROOT
