@<TRIPOS>MOLECULE
molecule
   66    71     1     0     0
SMALL
bcc


@<TRIPOS>ATOM
      1 O22          0.0000     0.0000     0.0000 o          1 82B      -0.661100
      2 C20          1.2150     0.0000     0.0000 c          1 82B       0.816100
      3 N21          1.8890     0.0000     1.1680 ns         1 82B      -0.578900
      4 C24          1.1570    -0.0010     2.4360 c3         1 82B       0.187000
      5 C25          0.7980    -1.4150     2.8090 ca         1 82B      -0.103300
      6 C30         -0.4390    -1.6940     3.3590 ca         1 82B      -0.110500
      7 C29         -0.7680    -2.9920     3.7000 ca         1 82B      -0.128500
      8 C28          0.1410    -4.0120     3.4920 ca         1 82B      -0.125000
      9 C27          1.3790    -3.7350     2.9420 ca         1 82B      -0.128500
     10 C26          1.7050    -2.4370     2.5960 ca         1 82B      -0.110500
     11 C23          2.0330     0.6090     3.5320 c3         1 82B       0.140800
     12 N31          2.4810     1.9450     3.1150 n3         1 82B      -0.708600
     13 C36          3.5170     2.4670     4.0310 c3         1 82B       0.143300
     14 C35          3.3150     3.9910     4.1190 c3         1 82B      -0.087900
     15 C34          2.0900     4.2880     3.2260 c3         1 82B      -0.087900
     16 C33          1.3630     2.9210     3.1670 c3         1 82B       0.143300
     17 N8           1.8900    -0.0050    -1.1670 n          1 82B      -0.478800
     18 C4           1.3040    -0.0100    -2.5100 cx         1 82B       0.035100
     19 C19          0.0120    -0.7780    -2.7930 cx         1 82B      -0.117900
     20 C18          0.0100     0.7520    -2.8010 cx         1 82B      -0.117900
     21 C7           3.3470     0.0020    -1.3310 c3         1 82B       0.193300
     22 C6           3.6430    -0.0070    -2.8080 cc         1 82B      -0.396600
     23 C5           2.4340    -0.0150    -3.5070 cc         1 82B       0.382600
     24 N1           2.7000    -0.0190    -4.7900 nd         1 82B      -0.481800
     25 C3           4.6550    -0.0080    -3.7210 cd         1 82B       0.102300
     26 N2           4.0900    -0.0200    -4.9550 na         1 82B      -0.033600
     27 N9           6.0200     0.0010    -3.4380 ns         1 82B      -0.441100
     28 C10          6.9160    -0.0020    -4.4440 c          1 82B       0.717700
     29 O12          6.5380    -0.1070    -5.5970 o          1 82B      -0.631100
     30 C11          8.3480     0.1240    -4.1520 cc         1 82B      -0.196900
     31 N16          9.3600     0.2390    -5.0780 na         1 82B       0.000900
     32 C32          9.1900     0.2580    -6.5320 c3         1 82B       0.032600
     33 C15         10.5420     0.3320    -4.4180 cc         1 82B      -0.095300
     34 C14         10.3040     0.2800    -3.0850 cd         1 82B      -0.105900
     35 Br          11.6080     0.3690    -1.7180 br         1 82B      -0.067100
     36 C13          8.9230     0.1540    -2.9000 cd         1 82B      -0.129000
     37 H21          2.8900    -0.0190     1.1680 hn         1 82B       0.315500
     38 H24          0.2520     0.5850     2.3300 h1         1 82B       0.086700
     39 H231         2.8960    -0.0240     3.7000 h1         1 82B       0.045200
     40 H232         1.4610     0.6900     4.4490 h1         1 82B       0.045200
     41 H30         -1.1520    -0.8940     3.5220 ha         1 82B       0.128500
     42 H26          2.6750    -2.2190     2.1650 ha         1 82B       0.128500
     43 H29         -1.7380    -3.2100     4.1310 ha         1 82B       0.129000
     44 H28         -0.1160    -5.0300     3.7610 ha         1 82B       0.128000
     45 H27          2.0900    -4.5350     2.7770 ha         1 82B       0.129000
     46 H361         3.3980     2.0230     5.0120 h1         1 82B       0.043200
     47 H362         4.5020     2.2480     3.6370 h1         1 82B       0.043200
     48 H331         0.7670     2.7690     4.0580 h1         1 82B       0.043200
     49 H332         0.7550     2.8520     2.2740 h1         1 82B       0.043200
     50 H351         3.1130     4.2840     5.1420 hc         1 82B       0.049700
     51 H352         4.1890     4.5070     3.7390 hc         1 82B       0.049700
     52 H341         1.4560     5.0380     3.6840 hc         1 82B       0.049700
     53 H342         2.4040     4.5960     2.2360 hc         1 82B       0.049700
     54 H71C         3.7280    -0.9230    -0.9150 h1         1 82B       0.049200
     55 H72C         3.7170     0.9370    -0.9290 h1         1 82B       0.049200
     56 H191        -0.0480    -1.2500    -3.7670 hc         1 82B       0.091700
     57 H192        -0.4550    -1.2420    -1.9330 hc         1 82B       0.091700
     58 H181        -0.0500     1.2140    -3.7790 hc         1 82B       0.091700
     59 H182        -0.4570     1.2230    -1.9450 hc         1 82B       0.091700
     60 H2           4.5790     0.0380    -5.8270 hn         1 82B       0.366700
     61 H9           6.3340    -0.0210    -2.4880 hn         1 82B       0.349500
     62 H13          8.4050     0.0860    -1.9510 ha         1 82B       0.157000
     63 H321        10.1590     0.3540    -7.0080 h1         1 82B       0.065367
     64 H322         8.7210    -0.6640    -6.8530 h1         1 82B       0.065367
     65 H323         8.5660     1.0970    -6.8130 h1         1 82B       0.065367
     66 H15         11.5160     0.4330    -4.8810 h4         1 82B       0.185000
@<TRIPOS>BOND
     1     1     2 2   
     2     2     3 1   
     3     2    17 1   
     4     3     4 1   
     5     4     5 1   
     6     4    11 1   
     7     5     6 ar  
     8     5    10 ar  
     9     6     7 ar  
    10     7     8 ar  
    11     8     9 ar  
    12     9    10 ar  
    13    11    12 1   
    14    12    13 1   
    15    12    16 1   
    16    13    14 1   
    17    14    15 1   
    18    15    16 1   
    19    17    18 1   
    20    17    21 1   
    21    18    19 1   
    22    18    20 1   
    23    18    23 1   
    24    19    20 1   
    25    21    22 1   
    26    22    23 1   
    27    22    25 2   
    28    23    24 2   
    29    24    26 1   
    30    25    26 1   
    31    25    27 1   
    32    27    28 1   
    33    28    29 2   
    34    28    30 1   
    35    30    31 1   
    36    30    36 2   
    37    31    32 1   
    38    31    33 1   
    39    33    34 2   
    40    34    35 1   
    41    34    36 1   
    42     3    37 1   
    43     4    38 1   
    44    11    39 1   
    45    11    40 1   
    46     6    41 1   
    47    10    42 1   
    48     7    43 1   
    49     8    44 1   
    50     9    45 1   
    51    13    46 1   
    52    13    47 1   
    53    16    48 1   
    54    16    49 1   
    55    14    50 1   
    56    14    51 1   
    57    15    52 1   
    58    15    53 1   
    59    21    54 1   
    60    21    55 1   
    61    19    56 1   
    62    19    57 1   
    63    20    58 1   
    64    20    59 1   
    65    26    60 1   
    66    27    61 1   
    67    36    62 1   
    68    32    63 1   
    69    32    64 1   
    70    32    65 1   
    71    33    66 1   
@<TRIPOS>SUBSTRUCTURE
     1 82B         1 TEMP              0 ****  ****    0 ROOT
