@<TRIPOS>MOLECULE
82D
   52    55     1     0     0
SMALL
bcc


@<TRIPOS>ATOM
      1 C4           0.0000     0.0000     0.0000 ca         1 82D      -0.094800
      2 C5           1.3960     0.0000     0.0000 ca         1 82D      -0.047000
      3 C6           2.0740     0.0000     1.1870 ca         1 82D      -0.133000
      4 C7           1.3860    -0.0010     2.3920 ca         1 82D      -0.087000
      5 C8           0.0090    -0.0030     2.4150 ca         1 82D      -0.104000
      6 C10         -1.0180     0.0050    -1.0530 cc         1 82D      -0.149400
      7 C13         -1.4290    -1.2190    -3.1940 c3         1 82D       0.149800
      8 C17         -4.9700    -1.6720    -5.9540 ca         1 82D       0.072100
      9 C20         -5.8480    -0.3240    -7.7290 ca         1 82D      -0.073000
     10 C21         -4.5900     0.2060    -7.9490 ca         1 82D      -0.126000
     11 C22         -3.5220    -0.1990    -7.1690 ca         1 82D       0.112900
     12 C24         -2.0010     0.6520    -4.5220 c3         1 82D       0.127800
     13 C19         -6.0380    -1.2620    -6.7320 ca         1 82D      -0.097000
     14 C9          -2.2140     0.0070    -0.4430 cd         1 82D      -0.247100
     15 C16         -3.7130    -1.1400    -6.1700 ca         1 82D      -0.096300
     16 C3          -0.7020    -0.0020     1.2200 ca         1 82D      -0.209200
     17 C11         -0.7710     0.0100    -2.5390 c3         1 82D       0.038500
     18 C25         -1.4540     1.2320    -3.1940 c3         1 82D       0.125500
     19 N2          -2.0440     0.0030     0.9150 na         1 82D       0.391600
     20 N14         -2.4470    -0.7120    -4.1400 n3         1 82D      -0.538600
     21 N27         -0.4760     2.2960    -3.4550 n3         1 82D      -0.539600
     22 Br          -5.2310    -2.9570    -4.5910 br         1 82D      -0.110100
     23 H1           1.9400     0.0010    -0.9370 ha         1 82D       0.103000
     24 H2           3.1580     0.0010     1.1870 ha         1 82D       0.102000
     25 H3           1.9380    -0.0010     3.3240 ha         1 82D       0.099000
     26 H4          -0.5190    -0.0040     3.3620 ha         1 82D       0.099000
     27 H5          -1.9030    -1.8310    -2.4370 h1         1 82D       0.019200
     28 H6          -0.6840    -1.7940    -3.7300 h1         1 82D       0.019200
     29 H9          -6.6850    -0.0050    -8.3390 ha         1 82D       0.110000
     30 H10         -4.4420     0.9420    -8.7300 ha         1 82D       0.121000
     31 H11         -2.8380     1.2410    -4.8780 h1         1 82D       0.030200
     32 H12         -1.2160     0.6010    -5.2670 h1         1 82D       0.030200
     33 H16         -7.0230    -1.6790    -6.5610 ha         1 82D       0.119000
     34 H17         -3.1710     0.0120    -0.9500 h4         1 82D       0.152000
     35 H18          0.2920     0.0190    -2.7480 hc         1 82D       0.049700
     36 H19         -2.2650     1.5920    -2.5740 h1         1 82D       0.029700
     37 C1          -3.1310     0.0040     1.8990 c3         1 82D      -0.005400
     38 C15         -2.5500    -1.5820    -5.3190 c3         1 82D       0.202100
     39 C29         -1.0680     3.3660    -4.2700 c3         1 82D       0.172100
     40 C28          0.0680     2.8310    -2.1990 c3         1 82D       0.172100
     41 F23         -2.2920     0.3180    -7.3840 f          1 82D      -0.125900
     42 H7          -2.7040    -2.6060    -5.0000 h1         1 82D       0.027200
     43 H8          -1.6350    -1.5180    -5.8950 h1         1 82D       0.027200
     44 H13          0.3530     3.8660    -2.3410 h1         1 82D       0.004700
     45 H14         -0.6850     2.7670    -1.4230 h1         1 82D       0.004700
     46 H15          0.9370     2.2540    -1.9080 h1         1 82D       0.004700
     47 H20         -3.0620    -0.8850     2.5140 h1         1 82D       0.017033
     48 H21         -3.0490     0.8840     2.5260 h1         1 82D       0.017033
     49 H22         -4.0840     0.0140     1.3850 h1         1 82D       0.017033
     50 H23         -0.9930     3.1040    -5.3190 h1         1 82D       0.004700
     51 H24         -2.1100     3.4890    -4.0020 h1         1 82D       0.004700
     52 H25         -0.5370     4.2930    -4.0910 h1         1 82D       0.004700
@<TRIPOS>BOND
     1     1     2 ar  
     2     1     6 1   
     3     1    16 ar  
     4     2     3 ar  
     5     2    23 1   
     6     3     4 ar  
     7     3    24 1   
     8     4     5 ar  
     9     4    25 1   
    10     5    16 ar  
    11     5    26 1   
    12     6    14 2   
    13     6    17 1   
    14     7    17 1   
    15     7    20 1   
    16     7    27 1   
    17     7    28 1   
    18     8    13 ar  
    19     8    15 ar  
    20     8    22 1   
    21     9    10 ar  
    22     9    13 ar  
    23     9    29 1   
    24    10    11 ar  
    25    10    30 1   
    26    11    15 ar  
    27    11    41 1   
    28    12    18 1   
    29    12    20 1   
    30    12    31 1   
    31    12    32 1   
    32    13    33 1   
    33    14    19 1   
    34    14    34 1   
    35    15    38 1   
    36    16    19 1   
    37    17    18 1   
    38    17    35 1   
    39    18    21 1   
    40    18    36 1   
    41    19    37 1   
    42    20    38 1   
    43    21    39 1   
    44    21    40 1   
    45    37    47 1   
    46    37    48 1   
    47    37    49 1   
    48    38    42 1   
    49    38    43 1   
    50    39    50 1   
    51    39    51 1   
    52    39    52 1   
    53    40    44 1   
    54    40    45 1   
    55    40    46 1   
@<TRIPOS>SUBSTRUCTURE
     1 82D         1 TEMP              0 ****  ****    0 ROOT
