@<TRIPOS>MOLECULE
molecule
   52    55     1     0     0
SMALL
bcc


@<TRIPOS>ATOM
      1 C4           0.0000     0.0000     0.0000 ca         1 82D      -0.097800
      2 C5           1.3960     0.0000     0.0000 ca         1 82D      -0.081000
      3 C6           2.0740     0.0000     1.1870 ca         1 82D      -0.158000
      4 C7           1.3860    -0.0010     2.3920 ca         1 82D      -0.111000
      5 C8           0.0090    -0.0030     2.4150 ca         1 82D      -0.142000
      6 C10         -1.0180     0.0050    -1.0530 cc         1 82D      -0.156400
      7 C13         -1.4290    -1.2190    -3.1940 c3         1 82D       0.151800
      8 C17         -4.9700    -1.6720    -5.9540 ca         1 82D       0.021100
      9 C20         -5.8480    -0.3240    -7.7290 ca         1 82D      -0.104000
     10 C21         -4.5900     0.2060    -7.9490 ca         1 82D      -0.157000
     11 C22         -3.5220    -0.1990    -7.1690 ca         1 82D       0.135900
     12 C24         -2.0010     0.6520    -4.5220 c3         1 82D       0.138800
     13 C19         -6.0380    -1.2620    -6.7320 ca         1 82D      -0.120000
     14 C9          -2.2140     0.0070    -0.4430 cd         1 82D      -0.089100
     15 C16         -3.7130    -1.1400    -6.1700 ca         1 82D      -0.090300
     16 C3          -0.7020    -0.0020     1.2200 ca         1 82D      -0.037200
     17 C11         -0.7710     0.0100    -2.5390 c3         1 82D       0.003500
     18 C25         -1.4540     1.2320    -3.1940 c3         1 82D       0.171500
     19 N2          -2.0440     0.0030     0.9150 na         1 82D      -0.074400
     20 N14         -2.4470    -0.7120    -4.1400 n3         1 82D      -0.702600
     21 N27         -0.4760     2.2960    -3.4550 n3         1 82D      -0.728600
     22 Br          -5.2310    -2.9570    -4.5910 br         1 82D      -0.078100
     23 H1           1.9400     0.0010    -0.9370 ha         1 82D       0.131000
     24 H2           3.1580     0.0010     1.1870 ha         1 82D       0.127000
     25 H3           1.9380    -0.0010     3.3240 ha         1 82D       0.128000
     26 H4          -0.5190    -0.0040     3.3620 ha         1 82D       0.124000
     27 H5          -1.9030    -1.8310    -2.4370 h1         1 82D       0.047700
     28 H6          -0.6840    -1.7940    -3.7300 h1         1 82D       0.047700
     29 H9          -6.6850    -0.0050    -8.3390 ha         1 82D       0.142000
     30 H10         -4.4420     0.9420    -8.7300 ha         1 82D       0.148000
     31 H11         -2.8380     1.2410    -4.8780 h1         1 82D       0.055200
     32 H12         -1.2160     0.6010    -5.2670 h1         1 82D       0.055200
     33 H16         -7.0230    -1.6790    -6.5610 ha         1 82D       0.147000
     34 H17         -3.1710     0.0120    -0.9500 h4         1 82D       0.176000
     35 H18          0.2920     0.0190    -2.7480 hc         1 82D       0.078700
     36 H19         -2.2650     1.5920    -2.5740 h1         1 82D       0.043700
     37 C1          -3.1310     0.0040     1.8990 c3         1 82D       0.040600
     38 C15         -2.5500    -1.5820    -5.3190 c3         1 82D       0.192100
     39 C29         -1.0680     3.3660    -4.2700 c3         1 82D       0.149600
     40 C28          0.0680     2.8310    -2.1990 c3         1 82D       0.149600
     41 F23         -2.2920     0.3180    -7.3840 f          1 82D      -0.135900
     42 H7          -2.7040    -2.6060    -5.0000 h1         1 82D       0.056200
     43 H8          -1.6350    -1.5180    -5.8950 h1         1 82D       0.056200
     44 H13          0.3530     3.8660    -2.3410 h1         1 82D       0.033533
     45 H14         -0.6850     2.7670    -1.4230 h1         1 82D       0.033533
     46 H15          0.9370     2.2540    -1.9080 h1         1 82D       0.033533
     47 H20         -3.0620    -0.8850     2.5140 h1         1 82D       0.048033
     48 H21         -3.0490     0.8840     2.5260 h1         1 82D       0.048033
     49 H22         -4.0840     0.0140     1.3850 h1         1 82D       0.048033
     50 H23         -0.9930     3.1040    -5.3190 h1         1 82D       0.033533
     51 H24         -2.1100     3.4890    -4.0020 h1         1 82D       0.033533
     52 H25         -0.5370     4.2930    -4.0910 h1         1 82D       0.033533
@<TRIPOS>BOND
     1    41    11 1   
     2    10    11 ar  
     3    10     9 ar  
     4    11    15 ar  
     5     9    13 ar  
     6    40    21 1   
     7    15    38 1   
     8    15     8 ar  
     9    38    20 1   
    10    12    20 1   
    11    12    18 1   
    12    21    18 1   
    13    21    39 1   
    14    13     8 ar  
    15     8    22 1   
    16    20     7 1   
    17    18    17 1   
    18     7    17 1   
    19    17     6 1   
    20     6    14 2   
    21     6     1 1   
    22    14    19 1   
    23     2     1 ar  
    24     2     3 ar  
    25     1    16 ar  
    26    19    16 1   
    27    19    37 1   
    28     3     4 ar  
    29    16     5 ar  
    30     4     5 ar  
    31     2    23 1   
    32     3    24 1   
    33     4    25 1   
    34     5    26 1   
    35     7    27 1   
    36     7    28 1   
    37    38    42 1   
    38    38    43 1   
    39     9    29 1   
    40    10    30 1   
    41    12    31 1   
    42    12    32 1   
    43    40    44 1   
    44    40    45 1   
    45    40    46 1   
    46    13    33 1   
    47    14    34 1   
    48    17    35 1   
    49    18    36 1   
    50    37    47 1   
    51    37    48 1   
    52    37    49 1   
    53    39    50 1   
    54    39    51 1   
    55    39    52 1   
@<TRIPOS>SUBSTRUCTURE
     1 82D         1 TEMP              0 ****  ****    0 ROOT
