@<TRIPOS>MOLECULE
82E
   35    37     1     0     0
SMALL
bcc


@<TRIPOS>ATOM
      1 N1           0.0000     0.0000     0.0000 nz         1 82E      -0.131500
      2 S2           1.6550     0.0000     0.0000 sy         1 82E       0.970200
      3 O5           2.0570     0.0000     1.3630 o          1 82E      -0.489300
      4 O6           2.0560    -0.9980    -0.9290 o          1 82E      -0.489300
      5 C7           2.1770     1.5430    -0.6730 cc         1 82E      -0.202600
      6 C8           2.4040     2.6520     0.0360 cd         1 82E       0.088000
      7 C9           2.8060     3.7470    -0.7040 cd         1 82E      -0.183000
      8 C10          2.9060     3.5240    -2.0280 cc         1 82E       0.158400
      9 S11          2.4830     1.8530    -2.3770 ss         1 82E      -0.155800
     10 C12          3.3160     4.5290    -3.0350 cc         1 82E       0.241800
     11 N13          3.6470     5.8040    -2.7780 nc         1 82E      -0.220000
     12 N14          3.9530     6.4050    -3.8750 nd         1 82E      -0.361800
     13 N15          3.8240     5.4910    -4.9310 na         1 82E       0.700300
     14 C16          3.4250     4.3130    -4.3760 cd         1 82E      -0.357600
     15 C17          4.0650     5.7400    -6.2900 ca         1 82E      -0.256200
     16 C18          4.4690     7.0020    -6.7040 ca         1 82E      -0.029500
     17 C19          4.7060     7.2460    -8.0420 ca         1 82E      -0.163500
     18 C20          4.5420     6.2310    -8.9730 ca         1 82E       0.192100
     19 C21          4.1390     4.9690    -8.5590 ca         1 82E      -0.163500
     20 C22          3.9060     4.7230    -7.2210 ca         1 82E      -0.029500
     21 O23          4.7760     6.4710   -10.2900 os         1 82E      -0.292900
     22 C24          4.5880     5.3800   -11.1930 c3         1 82E       0.244700
     23 H1N1        -0.3340     0.8790     0.3430 hn         1 82E       0.314467
     24 H2N1        -0.3340    -0.7370     0.5890 hn         1 82E       0.314467
     25 H8           2.2820     2.6890     1.1120 ha         1 82E       0.132000
     26 H9           3.0210     4.7080    -0.2540 ha         1 82E       0.168000
     27 H16          3.2280     3.3850    -4.9000 h4         1 82E       0.167000
     28 H18          4.5960     7.7950    -5.9770 ha         1 82E       0.121000
     29 H19          5.0210     8.2310    -8.3650 ha         1 82E       0.133500
     30 H21          4.0130     4.1750    -9.2860 ha         1 82E       0.133500
     31 H22          3.5910     3.7370    -6.8990 ha         1 82E       0.121000
     32 H124         4.8060     5.7050   -12.2030 h1         1 82E       0.003700
     33 H224         5.2530     4.5690   -10.9230 h1         1 82E       0.003700
     34 H324         3.5610     5.0380   -11.1370 h1         1 82E       0.003700
     35 H13         -0.3340    -0.1440    -0.9320 hn         1 82E       0.314467
@<TRIPOS>BOND
     1     1     2 1   
     2     1    23 1   
     3     1    24 1   
     4     1    35 1   
     5     2     3 2   
     6     2     4 2   
     7     2     5 1   
     8     5     6 2   
     9     5     9 1   
    10     6     7 1   
    11     6    25 1   
    12     7     8 2   
    13     7    26 1   
    14     8     9 1   
    15     8    10 1   
    16    10    11 1   
    17    10    14 2   
    18    11    12 2   
    19    12    13 1   
    20    13    14 1   
    21    13    15 1   
    22    14    27 1   
    23    15    16 ar  
    24    15    20 ar  
    25    16    17 ar  
    26    16    28 1   
    27    17    18 ar  
    28    17    29 1   
    29    18    19 ar  
    30    18    21 1   
    31    19    20 ar  
    32    19    30 1   
    33    20    31 1   
    34    21    22 1   
    35    22    32 1   
    36    22    33 1   
    37    22    34 1   
@<TRIPOS>SUBSTRUCTURE
     1 82E         1 TEMP              0 ****  ****    0 ROOT
