@<TRIPOS>MOLECULE
molecule
   35    37     1     0     0
SMALL
bcc


@<TRIPOS>ATOM
      1 N1           0.0000     0.0000     0.0000 nz         1 82E      -0.808500
      2 S2           1.6550     0.0000     0.0000 sy         1 82E       1.267200
      3 O5           2.0570     0.0000     1.3630 o          1 82E      -0.517300
      4 O6           2.0560    -0.9980    -0.9290 o          1 82E      -0.517300
      5 C7           2.1770     1.5430    -0.6730 cc         1 82E      -0.367600
      6 C8           2.4040     2.6520     0.0360 cc         1 82E       0.026000
      7 C9           2.8060     3.7470    -0.7040 cc         1 82E      -0.183000
      8 C10          2.9060     3.5240    -2.0280 cd         1 82E       0.078400
      9 S11          2.4830     1.8530    -2.3770 ss         1 82E      -0.011800
     10 C12          3.3160     4.5290    -3.0350 cd         1 82E       0.273800
     11 N13          3.6470     5.8040    -2.7780 nd         1 82E      -0.307000
     12 N14          3.9530     6.4050    -3.8750 nc         1 82E      -0.143800
     13 N15          3.8240     5.4910    -4.9310 na         1 82E       0.187300
     14 C16          3.4250     4.3130    -4.3760 cc         1 82E      -0.188600
     15 C17          4.0650     5.7400    -6.2900 ca         1 82E      -0.061200
     16 C18          4.4690     7.0020    -6.7040 ca         1 82E      -0.079500
     17 C19          4.7060     7.2460    -8.0420 ca         1 82E      -0.174000
     18 C20          4.5420     6.2310    -8.9730 ca         1 82E       0.167100
     19 C21          4.1390     4.9690    -8.5590 ca         1 82E      -0.174000
     20 C22          3.9060     4.7230    -7.2210 ca         1 82E      -0.079500
     21 O23          4.7760     6.4710   -10.2900 os         1 82E      -0.312900
     22 C24          4.5880     5.3800   -11.1930 c3         1 82E       0.124700
     23 H1N1        -0.3340     0.8790     0.3430 hn         1 82E       0.492133
     24 H2N1        -0.3340    -0.7370     0.5890 hn         1 82E       0.492133
     25 H8           2.2820     2.6890     1.1120 ha         1 82E       0.170000
     26 H9           3.0210     4.7080    -0.2540 ha         1 82E       0.200000
     27 H16          3.2280     3.3850    -4.9000 h4         1 82E       0.188000
     28 H18          4.5960     7.7950    -5.9770 ha         1 82E       0.149500
     29 H19          5.0210     8.2310    -8.3650 ha         1 82E       0.159500
     30 H21          4.0130     4.1750    -9.2860 ha         1 82E       0.159500
     31 H22          3.5910     3.7370    -6.8990 ha         1 82E       0.149500
     32 H124         4.8060     5.7050   -12.2030 h1         1 82E       0.049367
     33 H224         5.2530     4.5690   -10.9230 h1         1 82E       0.049367
     34 H324         3.5610     5.0380   -11.1370 h1         1 82E       0.049367
     35 H13         -0.3340    -0.1440    -0.9320 hn         1 82E       0.492133
@<TRIPOS>BOND
     1    22    21 1   
     2    21    18 1   
     3    18    17 ar  
     4    18    19 ar  
     5    17    16 ar  
     6    19    20 ar  
     7    16    15 ar  
     8    20    15 ar  
     9    15    13 1   
    10    13    14 1   
    11    13    12 1   
    12    14    10 2   
    13    12    11 2   
    14    10    11 1   
    15    10     8 1   
    16     8     7 2   
    17     8     9 1   
    18     7     6 1   
    19     9     5 1   
    20     4     2 2   
    21     6     5 2   
    22     5     2 1   
    23     2     3 2   
    24     2     1 1   
    25     1    23 1   
    26     1    24 1   
    27     6    25 1   
    28     7    26 1   
    29    14    27 1   
    30    16    28 1   
    31    17    29 1   
    32    19    30 1   
    33    20    31 1   
    34    22    32 1   
    35    22    33 1   
    36    22    34 1   
    37    35     1 1   
@<TRIPOS>SUBSTRUCTURE
     1 82E         1 TEMP              0 ****  ****    0 ROOT
