@<TRIPOS>MOLECULE
molecule
   73    76     1     0     0
SMALL
bcc


@<TRIPOS>ATOM
      1 C4           0.0000     0.0000     0.0000 ca         1 82F       0.415200
      2 C5           2.0190     0.0000     1.1260 ca         1 82F       0.509200
      3 C6           4.0700     1.1690     1.6010 ca         1 82F       0.105600
      4 N1           1.3190     0.0000     0.0000 nb         1 82F      -0.690000
      5 C7           4.8410     1.9900     0.7920 ca         1 82F      -0.113000
      6 C8           5.4560     3.1070     1.3240 ca         1 82F      -0.097000
      7 N2           3.4140     0.0670     1.0540 n          1 82F      -0.396500
      8 C9           5.3000     3.4170     2.6650 ca         1 82F      -0.141000
      9 C10          4.5440     2.6080     3.4840 ca         1 82F      -0.063000
     10 C11          3.9320     1.4620     2.9650 ca         1 82F      -0.152600
     11 C12          4.1150    -0.9210     0.4630 c          1 82F       0.800100
     12 N3           3.4720    -1.9820    -0.0620 ns         1 82F      -0.590900
     13 C13          4.2340    -3.0560    -0.7040 c3         1 82F       0.124000
     14 C14          3.2710    -4.1300    -1.2130 c3         1 82F       0.126800
     15 C15          4.7290    -4.7170    -3.0550 c3         1 82F       0.155800
     16 N4           4.0360    -5.2070    -1.8580 n3         1 82F      -0.717600
     17 N            2.0770    -0.0850     3.5560 ns         1 82F      -0.458100
     18 C            3.1930     0.5610     3.8560 c          1 82F       0.723100
     19 O            3.6460     0.3940     4.9720 o          1 82F      -0.630500
     20 C1           1.3710    -0.0240     2.3580 ca         1 82F      -0.052700
     21 C16          5.6270    -5.8230    -3.6150 c3         1 82F      -0.077400
     22 C17          4.7700    -7.0430    -3.9620 c3         1 82F      -0.086400
     23 C18          4.0220    -7.5040    -2.7080 c3         1 82F      -0.065400
     24 C19          3.1700    -6.3490    -2.1750 c3         1 82F       0.178500
     25 C2          -0.0190     0.0030     2.3870 ca         1 82F      -0.119000
     26 C20          2.4350    -6.8000    -0.9110 c3         1 82F       0.160800
     27 C21          4.1500    -6.1760     0.6810 c3         1 82F       0.142800
     28 C22          5.2170    -6.7290     1.6290 c3         1 82F      -0.083900
     29 C23          6.0780    -5.5790     2.1530 c3         1 82F      -0.093100
     30 C24          2.7530    -8.1100     1.1010 c3         1 82F       0.142800
     31 C25          2.4340    -9.4910     0.5240 c3         1 82F      -0.083900
     32 C26          1.6500   -10.3050     1.5560 c3         1 82F      -0.093100
     33 C3          -0.7090     0.0150     1.1830 ca         1 82F      -0.233300
     34 N5           3.4090    -7.2900     0.0730 n3         1 82F      -0.720600
     35 O1           5.3280    -0.8550     0.4050 o          1 82F      -0.631100
     36 H1          -0.5340     0.0100    -0.9430 h4         1 82F       0.033100
     37 H2           4.9660     1.7520    -0.2580 ha         1 82F       0.155000
     38 H3           6.0520     3.7490     0.6880 ha         1 82F       0.138000
     39 H4           5.7860     4.2940     3.0740 ha         1 82F       0.137000
     40 H5           4.4270     2.8570     4.5320 ha         1 82F       0.152000
     41 H6           2.4730    -2.0280    -0.0310 hn         1 82F       0.318500
     42 H7           4.7970    -2.6520    -1.5370 h1         1 82F       0.062200
     43 H8           4.9170    -3.4940     0.0140 h1         1 82F       0.062200
     44 H9           2.5890    -3.6920    -1.9320 h1         1 82F       0.042200
     45 H10          2.7090    -4.5350    -0.3810 h1         1 82F       0.042200
     46 H11          5.3370    -3.8590    -2.7930 h1         1 82F       0.037200
     47 H12          3.9990    -4.4330    -3.8030 h1         1 82F       0.037200
     48 H14          1.7010    -0.6820     4.2660 hn         1 82F       0.337500
     49 H15          6.3650    -6.0990    -2.8710 hc         1 82F       0.050200
     50 H16          6.1240    -5.4650    -4.5090 hc         1 82F       0.050200
     51 H17          4.0560    -6.7760    -4.7310 hc         1 82F       0.039200
     52 H18          5.4090    -7.8440    -4.3150 hc         1 82F       0.039200
     53 H19          3.3790    -8.3400    -2.9590 hc         1 82F       0.060700
     54 H20          4.7360    -7.8040    -1.9520 hc         1 82F       0.060700
     55 H21          2.4510    -6.0550    -2.9300 h1         1 82F       0.023700
     56 H22         -0.5520     0.0140     3.3300 ha         1 82F       0.152000
     57 H23          1.7420    -7.5940    -1.1600 h1         1 82F       0.034200
     58 H24          1.8900    -5.9620    -0.4930 h1         1 82F       0.034200
     59 H25          3.4640    -5.5480     1.2370 h1         1 82F       0.045200
     60 H26          4.6260    -5.5920    -0.0970 h1         1 82F       0.045200
     61 H27          4.7360    -7.2290     2.4610 hc         1 82F       0.044700
     62 H28          5.8420    -7.4350     1.0960 hc         1 82F       0.044700
     63 H29          6.7810    -5.9590     2.8840 hc         1 82F       0.033533
     64 H30          6.6200    -5.1300     1.3290 hc         1 82F       0.033533
     65 H31          5.4430    -4.8340     2.6160 hc         1 82F       0.033533
     66 H32          1.8350    -7.6280     1.4140 h1         1 82F       0.045200
     67 H33          3.4130    -8.2170     1.9530 h1         1 82F       0.045200
     68 H34          1.8400    -9.3790    -0.3750 hc         1 82F       0.044700
     69 H35          3.3580   -10.0050     0.2860 hc         1 82F       0.044700
     70 H36          1.4030   -11.2740     1.1400 hc         1 82F       0.033533
     71 H37          0.7380    -9.7790     1.8130 hc         1 82F       0.033533
     72 H38          2.2530   -10.4370     2.4460 hc         1 82F       0.033533
     73 H39         -1.7920     0.0150     1.1720 ha         1 82F       0.148000
@<TRIPOS>BOND
     1    22    23 1   
     2    22    21 1   
     3    26    24 1   
     4    26    34 1   
     5    23    24 1   
     6    21    15 1   
     7    30    34 1   
     8    30    31 1   
     9    24    16 1   
    10    34    27 1   
    11    15    16 1   
    12    32    31 1   
    13    27    28 1   
    14    16    14 1   
    15    28    29 1   
    16    14    13 1   
    17    13    12 1   
    18    35    11 2   
    19    19    18 2   
    20    12    11 1   
    21    11     7 1   
    22    17    18 1   
    23    17    20 1   
    24    18    10 1   
    25    20    25 ar  
    26    20     2 ar  
    27     7     2 1   
    28     7     3 1   
    29    25    33 ar  
    30     2     4 ar  
    31    10     3 ar  
    32    10     9 ar  
    33     3     5 ar  
    34    33     1 ar  
    35     4     1 ar  
    36     9     8 ar  
    37     5     6 ar  
    38     8     6 ar  
    39     1    36 1   
    40     5    37 1   
    41     6    38 1   
    42     8    39 1   
    43     9    40 1   
    44    12    41 1   
    45    13    42 1   
    46    13    43 1   
    47    14    44 1   
    48    14    45 1   
    49    15    46 1   
    50    15    47 1   
    51    17    48 1   
    52    21    49 1   
    53    21    50 1   
    54    22    51 1   
    55    22    52 1   
    56    23    53 1   
    57    23    54 1   
    58    24    55 1   
    59    25    56 1   
    60    26    57 1   
    61    26    58 1   
    62    27    59 1   
    63    27    60 1   
    64    28    61 1   
    65    28    62 1   
    66    29    63 1   
    67    29    64 1   
    68    29    65 1   
    69    30    66 1   
    70    30    67 1   
    71    31    68 1   
    72    31    69 1   
    73    32    70 1   
    74    32    71 1   
    75    32    72 1   
    76    33    73 1   
@<TRIPOS>SUBSTRUCTURE
     1 82F         1 TEMP              0 ****  ****    0 ROOT
