@<TRIPOS>MOLECULE
82F
   73    76     1     0     0
SMALL
bcc


@<TRIPOS>ATOM
      1 C4           0.0000     0.0000     0.0000 ca         1 82F       0.397200
      2 C5           2.0190     0.0000     1.1260 ca         1 82F       0.327200
      3 C6           4.0700     1.1690     1.6010 ca         1 82F      -0.035400
      4 N1           1.3190     0.0000     0.0000 nb         1 82F      -0.568000
      5 C7           4.8410     1.9900     0.7920 ca         1 82F      -0.083000
      6 C8           5.4560     3.1070     1.3240 ca         1 82F      -0.068000
      7 N2           3.4140     0.0670     1.0540 n          1 82F       0.004500
      8 C9           5.3000     3.4170     2.6650 ca         1 82F      -0.113000
      9 C10          4.5440     2.6080     3.4840 ca         1 82F      -0.030000
     10 C11          3.9320     1.4620     2.9650 ca         1 82F      -0.155600
     11 C12          4.1150    -0.9210     0.4630 c          1 82F       0.584100
     12 N3           3.4720    -1.9820    -0.0620 ns         1 82F      -0.210900
     13 C13          4.2340    -3.0560    -0.7040 c3         1 82F       0.046000
     14 C14          3.2710    -4.1300    -1.2130 c3         1 82F       0.100800
     15 C15          4.7290    -4.7170    -3.0550 c3         1 82F       0.138800
     16 N4           4.0360    -5.2070    -1.8580 n3         1 82F      -0.511600
     17 N            2.0770    -0.0850     3.5560 ns         1 82F      -0.013100
     18 C            3.1930     0.5610     3.8560 c          1 82F       0.625100
     19 O            3.6460     0.3940     4.9720 o          1 82F      -0.669500
     20 C1           1.3710    -0.0240     2.3580 ca         1 82F      -0.191700
     21 C16          5.6270    -5.8230    -3.6150 c3         1 82F      -0.023400
     22 C17          4.7700    -7.0430    -3.9620 c3         1 82F      -0.028400
     23 C18          4.0220    -7.5040    -2.7080 c3         1 82F      -0.026400
     24 C19          3.1700    -6.3490    -2.1750 c3         1 82F       0.133500
     25 C2          -0.0190     0.0030     2.3870 ca         1 82F      -0.091000
     26 C20          2.4350    -6.8000    -0.9110 c3         1 82F       0.133800
     27 C21          4.1500    -6.1760     0.6810 c3         1 82F       0.103300
     28 C22          5.2170    -6.7290     1.6290 c3         1 82F      -0.032400
     29 C23          6.0780    -5.5790     2.1530 c3         1 82F       0.006400
     30 C24          2.7530    -8.1100     1.1010 c3         1 82F       0.103300
     31 C25          2.4340    -9.4910     0.5240 c3         1 82F      -0.032400
     32 C26          1.6500   -10.3050     1.5560 c3         1 82F       0.006400
     33 C3          -0.7090     0.0150     1.1830 ca         1 82F      -0.191300
     34 N5           3.4090    -7.2900     0.0730 n3         1 82F      -0.520600
     35 O1           5.3280    -0.8550     0.4050 o          1 82F      -0.682100
     36 H1          -0.5340     0.0100    -0.9430 h4         1 82F      -0.012900
     37 H2           4.9660     1.7520    -0.2580 ha         1 82F       0.124000
     38 H3           6.0520     3.7490     0.6880 ha         1 82F       0.105000
     39 H4           5.7860     4.2940     3.0740 ha         1 82F       0.107000
     40 H5           4.4270     2.8570     4.5320 ha         1 82F       0.120000
     41 H6           2.4730    -2.0280    -0.0310 hn         1 82F       0.179500
     42 H7           4.7970    -2.6520    -1.5370 h1         1 82F       0.038700
     43 H8           4.9170    -3.4940     0.0140 h1         1 82F       0.038700
     44 H9           2.5890    -3.6920    -1.9320 h1         1 82F       0.023200
     45 H10          2.7090    -4.5350    -0.3810 h1         1 82F       0.023200
     46 H11          5.3370    -3.8590    -2.7930 h1         1 82F       0.015700
     47 H12          3.9990    -4.4330    -3.8030 h1         1 82F       0.015700
     48 H14          1.7010    -0.6820     4.2660 hn         1 82F       0.179500
     49 H15          6.3650    -6.0990    -2.8710 hc         1 82F       0.021700
     50 H16          6.1240    -5.4650    -4.5090 hc         1 82F       0.021700
     51 H17          4.0560    -6.7760    -4.7310 hc         1 82F       0.012200
     52 H18          5.4090    -7.8440    -4.3150 hc         1 82F       0.012200
     53 H19          3.3790    -8.3400    -2.9590 hc         1 82F       0.033200
     54 H20          4.7360    -7.8040    -1.9520 hc         1 82F       0.033200
     55 H21          2.4510    -6.0550    -2.9300 h1         1 82F       0.008700
     56 H22         -0.5520     0.0140     3.3300 ha         1 82F       0.122000
     57 H23          1.7420    -7.5940    -1.1600 h1         1 82F       0.016700
     58 H24          1.8900    -5.9620    -0.4930 h1         1 82F       0.016700
     59 H25          3.4640    -5.5480     1.2370 h1         1 82F       0.027950
     60 H26          4.6260    -5.5920    -0.0970 h1         1 82F       0.027950
     61 H27          4.7360    -7.2290     2.4610 hc         1 82F       0.018200
     62 H28          5.8420    -7.4350     1.0960 hc         1 82F       0.018200
     63 H29          6.7810    -5.9590     2.8840 hc         1 82F       0.001033
     64 H30          6.6200    -5.1300     1.3290 hc         1 82F       0.001033
     65 H31          5.4430    -4.8340     2.6160 hc         1 82F       0.001033
     66 H32          1.8350    -7.6280     1.4140 h1         1 82F       0.027950
     67 H33          3.4130    -8.2170     1.9530 h1         1 82F       0.027950
     68 H34          1.8400    -9.3790    -0.3750 hc         1 82F       0.018200
     69 H35          3.3580   -10.0050     0.2860 hc         1 82F       0.018200
     70 H36          1.4030   -11.2740     1.1400 hc         1 82F       0.001033
     71 H37          0.7380    -9.7790     1.8130 hc         1 82F       0.001033
     72 H38          2.2530   -10.4370     2.4460 hc         1 82F       0.001033
     73 H39         -1.7920     0.0150     1.1720 ha         1 82F       0.119000
@<TRIPOS>BOND
     1     1     4 ar  
     2     1    33 ar  
     3     1    36 1   
     4     2     4 ar  
     5     2     7 1   
     6     2    20 ar  
     7     3     5 ar  
     8     3     7 1   
     9     3    10 ar  
    10     5     6 ar  
    11     5    37 1   
    12     6     8 ar  
    13     6    38 1   
    14     7    11 1   
    15     8     9 ar  
    16     8    39 1   
    17     9    10 ar  
    18     9    40 1   
    19    10    18 1   
    20    11    12 1   
    21    11    35 2   
    22    12    13 1   
    23    12    41 1   
    24    13    14 1   
    25    13    42 1   
    26    13    43 1   
    27    14    16 1   
    28    14    44 1   
    29    14    45 1   
    30    15    16 1   
    31    15    21 1   
    32    15    46 1   
    33    15    47 1   
    34    16    24 1   
    35    17    18 1   
    36    17    20 1   
    37    17    48 1   
    38    18    19 2   
    39    20    25 ar  
    40    21    22 1   
    41    21    49 1   
    42    21    50 1   
    43    22    23 1   
    44    22    51 1   
    45    22    52 1   
    46    23    24 1   
    47    23    53 1   
    48    23    54 1   
    49    24    26 1   
    50    24    55 1   
    51    25    33 ar  
    52    25    56 1   
    53    26    34 1   
    54    26    57 1   
    55    26    58 1   
    56    27    28 1   
    57    27    34 1   
    58    27    59 1   
    59    27    60 1   
    60    28    29 1   
    61    28    61 1   
    62    28    62 1   
    63    29    63 1   
    64    29    64 1   
    65    29    65 1   
    66    30    31 1   
    67    30    34 1   
    68    30    66 1   
    69    30    67 1   
    70    31    32 1   
    71    31    68 1   
    72    31    69 1   
    73    32    70 1   
    74    32    71 1   
    75    32    72 1   
    76    33    73 1   
@<TRIPOS>SUBSTRUCTURE
     1 82F         1 TEMP              0 ****  ****    0 ROOT
