@<TRIPOS>MOLECULE
82G
   56    60     1     0     0
SMALL
bcc


@<TRIPOS>ATOM
      1 C4           0.0000     0.0000     0.0000 ca         1 82G      -0.048000
      2 C5          -6.4330    -5.2690     0.4290 ca         1 82G      -0.101000
      3 C6           1.4080     0.0010     2.4030 ca         1 82G      -0.104000
      4 C7          -5.8490    -4.8710     2.7150 ca         1 82G      -0.144000
      5 C8          -2.1760     0.0020     2.9140 cc         1 82G      -0.243100
      6 C10         -6.5770    -3.9060     0.2220 ca         1 82G      -0.073300
      7 C13          0.0170     0.0020     2.4270 ca         1 82G      -0.209200
      8 C15         -6.9640    -3.1390    -1.0240 c3         1 82G       0.045900
      9 C17         -4.1700    -1.2310     0.8680 c3         1 82G       0.126800
     10 C20         -6.5700    -1.6050     0.7860 c3         1 82G       0.208800
     11 C21         -4.1930     1.2190     0.8900 c3         1 82G       0.123500
     12 C24         -4.9620     3.3340    -0.0030 c3         1 82G       0.174600
     13 C1           1.3660     0.0000     0.0000 ca         1 82G      -0.134000
     14 C2           2.0720     0.0000     1.1950 ca         1 82G      -0.088000
     15 C3          -6.0710    -5.7500     1.6710 ca         1 82G      -0.072000
     16 C9          -0.6920     0.0010     1.2120 ca         1 82G      -0.094800
     17 C11         -2.1120     0.0010     1.5740 cd         1 82G      -0.151400
     18 C12         -6.3500    -3.0250     1.2620 ca         1 82G      -0.135300
     19 C14         -5.9820    -3.5090     2.5080 ca         1 82G       0.144900
     20 C16         -6.5260    -1.6840    -0.7550 c3         1 82G      -0.080400
     21 C18         -5.6160     0.6340     0.7060 c3         1 82G       0.136800
     22 C19         -3.2800     0.0000     0.6200 c3         1 82G       0.041500
     23 C23         -2.5910     2.8510     0.0930 c3         1 82G       0.174600
     24 N25         -0.9130     0.0020     3.4420 na         1 82G       0.390600
     25 N26         -5.4990    -0.7300     1.2820 n3         1 82G      -0.535600
     26 N27         -3.9350     2.2860    -0.0860 n3         1 82G      -0.541600
     27 F28         -5.7650    -2.6500     3.5280 f          1 82G      -0.125900
     28 H1          -0.5440     0.0000    -0.9370 ha         1 82G       0.103000
     29 H3           1.9680     0.0010     3.3310 ha         1 82G       0.099000
     30 H4          -5.5650    -5.2460     3.6900 ha         1 82G       0.119000
     31 H5          -3.0910     0.0010     3.4940 h4         1 82G       0.155000
     32 H6          -8.0350    -3.1860    -1.1750 hc         1 82G       0.022700
     33 H7          -6.4380    -3.5340    -1.8850 hc         1 82G       0.022700
     34 H8          -3.7450    -1.8410     1.6560 h1         1 82G       0.030700
     35 H9          -4.2630    -1.8080    -0.0450 h1         1 82G       0.030700
     36 H10         -7.5380    -1.2460     1.1150 h1         1 82G       0.045700
     37 H11         -4.0580     1.5780     1.9030 h1         1 82G       0.031700
     38 H15         -5.1660     3.5580     1.0370 h1         1 82G       0.004033
     39 H16         -5.8710     2.9890    -0.4810 h1         1 82G       0.004033
     40 H17         -4.6080     4.2280    -0.5020 h1         1 82G       0.004033
     41 H18          1.9030    -0.0010    -0.9410 ha         1 82G       0.101000
     42 H19          3.1550    -0.0000     1.1780 ha         1 82G       0.099000
     43 H20         -5.9680    -6.8170     1.8310 ha         1 82G       0.106000
     44 H21         -5.5200    -1.5120    -1.1180 hc         1 82G       0.037200
     45 H22         -7.2280    -0.9850    -1.1940 hc         1 82G       0.037200
     46 H23         -5.8720     0.5810    -0.3450 h1         1 82G       0.024200
     47 H24         -6.3420     1.2190     1.2560 h1         1 82G       0.024200
     48 H25         -2.9350     0.0120    -0.4060 hc         1 82G       0.046700
     49 H26         -2.5370     3.8180    -0.3920 h1         1 82G       0.004033
     50 H27         -2.3860     2.9660     1.1510 h1         1 82G       0.004033
     51 H28         -1.8580     2.1850    -0.3450 h1         1 82G       0.004033
     52 C22         -0.5980     0.0030     4.8730 c3         1 82G      -0.005400
     53 H2          -6.6060    -5.9600    -0.3880 ha         1 82G       0.106000
     54 H12         -0.0250    -0.8830     5.1170 h1         1 82G       0.017033
     55 H13         -1.5180     0.0070     5.4450 h1         1 82G       0.017033
     56 H14         -0.0190     0.8860     5.1150 h1         1 82G       0.017033
@<TRIPOS>BOND
     1     1    13 ar  
     2     1    16 ar  
     3     1    28 1   
     4     2     6 ar  
     5     2    15 ar  
     6     2    53 1   
     7     3     7 ar  
     8     3    14 ar  
     9     3    29 1   
    10     4    15 ar  
    11     4    19 ar  
    12     4    30 1   
    13     5    17 2   
    14     5    24 1   
    15     5    31 1   
    16     6     8 1   
    17     6    18 ar  
    18     7    16 ar  
    19     7    24 1   
    20     8    20 1   
    21     8    32 1   
    22     8    33 1   
    23     9    22 1   
    24     9    25 1   
    25     9    34 1   
    26     9    35 1   
    27    10    18 1   
    28    10    20 1   
    29    10    25 1   
    30    10    36 1   
    31    11    21 1   
    32    11    22 1   
    33    11    26 1   
    34    11    37 1   
    35    12    26 1   
    36    12    38 1   
    37    12    39 1   
    38    12    40 1   
    39    13    14 ar  
    40    13    41 1   
    41    14    42 1   
    42    15    43 1   
    43    16    17 1   
    44    17    22 1   
    45    18    19 ar  
    46    19    27 1   
    47    20    44 1   
    48    20    45 1   
    49    21    25 1   
    50    21    46 1   
    51    21    47 1   
    52    22    48 1   
    53    23    26 1   
    54    23    49 1   
    55    23    50 1   
    56    23    51 1   
    57    24    52 1   
    58    52    54 1   
    59    52    55 1   
    60    52    56 1   
@<TRIPOS>SUBSTRUCTURE
     1 82G         1 TEMP              0 ****  ****    0 ROOT
