@<TRIPOS>MOLECULE
82I
   19    19     1     0     0
SMALL
bcc


@<TRIPOS>ATOM
      1 C01          0.0000     0.0000     0.0000 c3         1 82I       0.188100
      2 N05          1.4650     0.0000     0.0000 nu         1 82I      -0.381000
      3 C07          2.1570     0.0000     1.2000 cc         1 82I      -0.037600
      4 C08          1.4580    -0.0000     2.4250 cc         1 82I       0.374500
      5 N10          2.1080    -0.0000     3.5560 nd         1 82I      -0.483300
      6 N11          3.5060     0.0000     3.5830 n          1 82I       0.143200
      7 C12          4.2070     0.0040     4.8700 c3         1 82I       0.096300
      8 C16          4.2150     0.0000     2.4370 c          1 82I       0.615700
      9 O17          5.4350     0.0000     2.4690 o          1 82I      -0.687500
     10 C18          3.5400    -0.0050     1.2070 cd         1 82I      -0.273800
     11 Cl1          4.4300    -0.0050    -0.2840 cl         1 82I       0.029600
     12 H1          -0.3610     0.8850     0.5100 h1         1 82I       0.010367
     13 H2          -0.3610    -0.8840     0.5110 h1         1 82I       0.010367
     14 H3          -0.3610    -0.0000    -1.0210 h1         1 82I       0.010367
     15 H4           0.3750    -0.0000     2.4270 h4         1 82I       0.011800
     16 H5           3.4820     0.0040     5.6760 h1         1 82I       0.021700
     17 H6           4.8260     0.8900     4.9420 h1         1 82I       0.021700
     18 H7           4.8300    -0.8790     4.9450 h1         1 82I       0.021700
     19 H9           1.9650     0.0110    -0.8670 hn         1 82I       0.305800
@<TRIPOS>BOND
     1     1     2 1   
     2     1    12 1   
     3     1    13 1   
     4     1    14 1   
     5     2     3 1   
     6     2    19 1   
     7     3     4 1   
     8     3    10 2   
     9     4     5 2   
    10     4    15 1   
    11     5     6 1   
    12     6     7 1   
    13     6     8 1   
    14     7    16 1   
    15     7    17 1   
    16     7    18 1   
    17     8     9 2   
    18     8    10 1   
    19    10    11 1   
@<TRIPOS>SUBSTRUCTURE
     1 82I         1 TEMP              0 ****  ****    0 ROOT
