@<TRIPOS>MOLECULE
molecule
   19    19     1     0     0
SMALL
bcc


@<TRIPOS>ATOM
      1 C01          0.0000     0.0000     0.0000 c3         1 82I       0.215100
      2 N05          1.4650     0.0000     0.0000 nu         1 82I      -0.797000
      3 C07          2.1570     0.0000     1.2000 cc         1 82I       0.113400
      4 C08          1.4580    -0.0000     2.4250 cd         1 82I       0.351500
      5 N10          2.1080    -0.0000     3.5560 nc         1 82I      -0.407300
      6 N11          3.5060     0.0000     3.5830 n          1 82I      -0.210800
      7 C12          4.2070     0.0040     4.8700 c3         1 82I       0.120300
      8 C16          4.2150     0.0000     2.4370 c          1 82I       0.691700
      9 O17          5.4350     0.0000     2.4690 o          1 82I      -0.633500
     10 C18          3.5400    -0.0050     1.2070 cd         1 82I      -0.187800
     11 Cl1          4.4300    -0.0050    -0.2840 cl         1 82I      -0.073400
     12 H1          -0.3610     0.8850     0.5100 h1         1 82I       0.042033
     13 H2          -0.3610    -0.8840     0.5110 h1         1 82I       0.042033
     14 H3          -0.3610    -0.0000    -1.0210 h1         1 82I       0.042033
     15 H4           0.3750    -0.0000     2.4270 h4         1 82I       0.057800
     16 H5           3.4820     0.0040     5.6760 h1         1 82I       0.057700
     17 H6           4.8260     0.8900     4.9420 h1         1 82I       0.057700
     18 H7           4.8300    -0.8790     4.9450 h1         1 82I       0.057700
     19 H9           1.9650     0.0110    -0.8670 hn         1 82I       0.460800
@<TRIPOS>BOND
     1     7     6 1   
     2     9     8 2   
     3     6     8 1   
     4     6     5 1   
     5     8    10 1   
     6     5     4 2   
     7    10    11 1   
     8    10     3 2   
     9     4     3 1   
    10     3     2 1   
    11     2     1 1   
    12     1    12 1   
    13     1    13 1   
    14     1    14 1   
    15     4    15 1   
    16     7    16 1   
    17     7    17 1   
    18     7    18 1   
    19     2    19 1   
@<TRIPOS>SUBSTRUCTURE
     1 82I         1 TEMP              0 ****  ****    0 ROOT
