@<TRIPOS>MOLECULE
molecule
   46    48     1     0     0
SMALL
bcc


@<TRIPOS>ATOM
      1 C10          0.0000     0.0000     0.0000 c3         1 82M       0.081800
      2 N12          2.0170    -1.1970    -0.6910 ns         1 82M      -0.597900
      3 C13          2.1460    -1.1950    -2.0330 c          1 82M       0.705700
      4 C15          2.6340    -2.3920    -2.7230 cc         1 82M      -0.263900
      5 C17          3.2930    -3.8140    -4.3180 cd         1 82M      -0.182000
      6 C20          3.8610    -5.8360    -2.8820 ca         1 82M      -0.015000
      7 C21          4.2440    -6.6240    -3.9690 ca         1 82M      -0.133000
      8 C22          4.6840    -7.9170    -3.7590 ca         1 82M       0.156900
      9 C26          3.9240    -6.3590    -1.5900 ca         1 82M      -0.136000
     10 C02          2.4960    -0.8480     3.4250 cc         1 82M       0.388600
     11 C03          2.9410     0.3870     3.6760 cd         1 82M      -0.107700
     12 C04          3.5400     0.8680     4.9720 c3         1 82M       0.218700
     13 C07          2.0330     0.0000     1.4200 cd         1 82M       0.351700
     14 C09          1.5300     0.0000     0.0000 c3         1 82M       0.096400
     15 C16          2.8180    -2.5250    -4.0850 cd         1 82M      -0.077000
     16 C18          3.3960    -4.4490    -3.1000 cc         1 82M       0.001700
     17 C23          4.7430    -8.4300    -2.4720 ca         1 82M      -0.003600
     18 C25          4.3640    -7.6510    -1.3910 ca         1 82M      -0.088000
     19 F27          5.0550    -8.6820    -4.8080 f          1 82M      -0.111900
     20 N08          2.0200    -1.0220     2.2080 nc         1 82M      -0.679000
     21 N11         -0.4900    -0.1210    -1.3790 nz         1 82M      -0.808600
     22 N19          2.9950    -3.5800    -2.1270 na         1 82M      -0.147100
     23 O05          4.9550     0.6680     4.9460 oh         1 82M      -0.597800
     24 O14          1.8570    -0.2000    -2.6710 o          1 82M      -0.655100
     25 S06          2.7020     1.3540     2.2210 ss         1 82M      -0.107300
     26 Cl24         5.2950   -10.0550    -2.2140 cl         1 82M      -0.056400
     27 H101        -0.3610    -0.8360     0.5860 hx         1 82M       0.116700
     28 H102        -0.3610     0.9260     0.4320 hx         1 82M       0.116700
     29 H121         2.2870    -2.0040    -0.1640 hn         1 82M       0.350500
     30 H171         3.5400    -4.2400    -5.2840 ha         1 82M       0.175000
     31 H211         4.1980    -6.2230    -4.9740 ha         1 82M       0.162000
     32 H261         3.6280    -5.7510    -0.7430 ha         1 82M       0.125000
     33 H013         3.5630    -2.0960     4.7810 hc         1 82M       0.063367
     34 H012         2.1750    -2.8710     4.0040 hc         1 82M       0.063367
     35 H011         1.9190    -1.6880     5.2940 hc         1 82M       0.063367
     36 H042         3.3270     1.9230     5.0990 h1         1 82M       0.049700
     37 H041         3.1120     0.3110     5.7960 h1         1 82M       0.049700
     38 H091         1.8910     0.8840    -0.5110 h1         1 82M       0.106700
     39 H161         2.7410    -1.5860    -4.6200 ha         1 82M       0.179000
     40 H251         4.4130    -8.0570    -0.3880 ha         1 82M       0.159000
     41 H111        -0.3140    -1.0470    -1.7160 hn         1 82M       0.463133
     42 H112        -1.4740     0.0610    -1.4010 hn         1 82M       0.463133
     43 H191         2.9660    -3.7740    -1.1460 hn         1 82M       0.298700
     44 H051         5.3720     1.3000     5.5080 ho         1 82M       0.421000
     45 H113        -0.0250     0.5500    -1.9580 hn         1 82M       0.463133
     46 C01          2.5420    -1.9530     4.4480 c3         1 82M      -0.122400
@<TRIPOS>BOND
     1    46    10 1
     2    10    20 1
     3    10    11 2
     4    20    13 2
     5    23    12 1
     6    12    11 1
     7    11    25 1
     8    13    25 1
     9    13    14 1
    10     1    14 1
    11     1    21 1
    12    14     2 1
    13     2     3 1
    14     3    24 2
    15     3     4 1
    16    15     4 2
    17    15     5 1
    18     4    22 1
    19     5    16 2
    20    22    16 1
    21    16     6 1
    22     6     7 ar
    23     6     9 ar
    24     7     8 ar
    25     9    18 ar
    26     8    19 1
    27     8    17 ar
    28    18    17 ar
    29    17    26 1
    30     1    27 1
    31     1    28 1
    32     2    29 1
    33     5    30 1
    34     7    31 1
    35     9    32 1
    36    46    33 1
    37    46    34 1
    38    46    35 1
    39    12    36 1
    40    12    37 1
    41    14    38 1
    42    15    39 1
    43    18    40 1
    44    21    41 1
    45    21    42 1
    46    22    43 1
    47    23    44 1
    48    45    21 1
@<TRIPOS>SUBSTRUCTURE
     1 82M         1 TEMP              0 ****  ****    0 ROOT
