@<TRIPOS>MOLECULE
82M
   46    48     1     0     0
SMALL
bcc


@<TRIPOS>ATOM
      1 C10          0.0000     0.0000     0.0000 c3         1 82M      -0.065200
      2 N12          2.0170    -1.1970    -0.6910 ns         1 82M      -0.234900
      3 C13          2.1460    -1.1950    -2.0330 c          1 82M       0.656700
      4 C15          2.6340    -2.3920    -2.7230 cc         1 82M      -0.486900
      5 C17          3.2930    -3.8140    -4.3180 cd         1 82M      -0.150000
      6 C20          3.8610    -5.8360    -2.8820 ca         1 82M      -0.002000
      7 C21          4.2440    -6.6240    -3.9690 ca         1 82M      -0.102000
      8 C22          4.6840    -7.9170    -3.7590 ca         1 82M       0.130900
      9 C26          3.9240    -6.3590    -1.5900 ca         1 82M      -0.118000
     10 C02          2.4960    -0.8480     3.4250 cc         1 82M       0.330600
     11 C03          2.9410     0.3870     3.6760 cd         1 82M      -0.057700
     12 C04          3.5400     0.8680     4.9720 c3         1 82M       0.318700
     13 C07          2.0330     0.0000     1.4200 cd         1 82M       0.330700
     14 C09          1.5300     0.0000     0.0000 c3         1 82M       0.028400
     15 C16          2.8180    -2.5250    -4.0850 cd         1 82M      -0.040000
     16 C18          3.3960    -4.4490    -3.1000 cc         1 82M      -0.197300
     17 C23          4.7430    -8.4300    -2.4720 ca         1 82M      -0.074600
     18 C25          4.3640    -7.6510    -1.3910 ca         1 82M      -0.060000
     19 F27          5.0550    -8.6820    -4.8080 f          1 82M      -0.110900
     20 N08          2.0200    -1.0220     2.2080 nc         1 82M      -0.539000
     21 N11         -0.4900    -0.1210    -1.3790 nz         1 82M       0.051400
     22 N19          2.9950    -3.5800    -2.1270 na         1 82M       0.428900
     23 O05          4.9550     0.6680     4.9460 oh         1 82M      -0.582800
     24 O14          1.8570    -0.2000    -2.6710 o          1 82M      -0.695100
     25 S06          2.7020     1.3540     2.2210 ss         1 82M      -0.221300
     26 Cl24         5.2950   -10.0550    -2.2140 cl         1 82M       0.040600
     27 H101        -0.3610    -0.8360     0.5860 hx         1 82M       0.088700
     28 H102        -0.3610     0.9260     0.4320 hx         1 82M       0.088700
     29 H121         2.2870    -2.0040    -0.1640 hn         1 82M       0.211500
     30 H171         3.5400    -4.2400    -5.2840 ha         1 82M       0.147000
     31 H211         4.1980    -6.2230    -4.9740 ha         1 82M       0.134000
     32 H261         3.6280    -5.7510    -0.7430 ha         1 82M       0.095000
     33 H013         3.5630    -2.0960     4.7810 hc         1 82M       0.024700
     34 H012         2.1750    -2.8710     4.0040 hc         1 82M       0.024700
     35 H011         1.9190    -1.6880     5.2940 hc         1 82M       0.024700
     36 H042         3.3270     1.9230     5.0990 h1         1 82M       0.008200
     37 H041         3.1120     0.3110     5.7960 h1         1 82M       0.008200
     38 H091         1.8910     0.8840    -0.5110 h1         1 82M       0.080700
     39 H161         2.7410    -1.5860    -4.6200 ha         1 82M       0.149000
     40 H251         4.4130    -8.0570    -0.3880 ha         1 82M       0.123000
     41 H111        -0.3140    -1.0470    -1.7160 hn         1 82M       0.237467
     42 H112        -1.4740     0.0610    -1.4010 hn         1 82M       0.237467
     43 H191         2.9660    -3.7740    -1.1460 hn         1 82M       0.112700
     44 H051         5.3720     1.3000     5.5080 ho         1 82M       0.408000
     45 H113        -0.0250     0.5500    -1.9580 hn         1 82M       0.237467
     46 C01          2.5420    -1.9530     4.4480 c3         1 82M      -0.019400
@<TRIPOS>BOND
     1     1    14 1   
     2     1    21 1   
     3     1    27 1   
     4     1    28 1   
     5     2     3 1   
     6     2    14 1   
     7     2    29 1   
     8     3     4 1   
     9     3    24 2   
    10     4    15 2   
    11     4    22 1   
    12     5    15 1   
    13     5    16 2   
    14     5    30 1   
    15     6     7 ar  
    16     6     9 ar  
    17     6    16 1   
    18     7     8 ar  
    19     7    31 1   
    20     8    17 ar  
    21     8    19 1   
    22     9    18 ar  
    23     9    32 1   
    24    10    11 2   
    25    10    20 1   
    26    10    46 1   
    27    11    12 1   
    28    11    25 1   
    29    12    23 1   
    30    12    36 1   
    31    12    37 1   
    32    13    14 1   
    33    13    20 2   
    34    13    25 1   
    35    14    38 1   
    36    15    39 1   
    37    16    22 1   
    38    17    18 ar  
    39    17    26 1   
    40    18    40 1   
    41    21    41 1   
    42    21    42 1   
    43    21    45 1   
    44    22    43 1   
    45    23    44 1   
    46    33    46 1   
    47    34    46 1   
    48    35    46 1   
@<TRIPOS>SUBSTRUCTURE
     1 82M         1 TEMP              0 ****  ****    0 ROOT
