@<TRIPOS>MOLECULE
molecule
   28    29     1     0     0
SMALL
bcc


@<TRIPOS>ATOM
      1 C2           0.0000     0.0000     0.0000 c3         1 82S       0.026700
      2 C3           1.5460     0.0000     0.0000 c3         1 82S      -0.077400
      3 C4           1.9400     0.0000     1.5080 c3         1 82S      -0.072700
      4 C5           1.5460     1.4210     2.0150 c3         1 82S      -0.082400
      5 C6           0.0000     1.4210     2.0150 c3         1 82S      -0.075400
      6 C7           0.7730    -0.8580     2.1130 c3         1 82S      -0.063000
      7 C8           0.7730    -0.8290     3.6440 c3         1 82S      -0.090600
      8 C9           0.7730    -2.2890     1.5730 c3         1 82S      -0.090600
      9 C10         -1.8140    -0.4700     1.8300 c3         1 82S      -0.068100
     10 Br1         -0.6900    -1.6130    -0.8880 br         1 82S      -0.183400
     11 C1          -0.3950     0.0000     1.5090 c3         1 82S      -0.061000
     12 H1          -0.3770     0.8900    -0.4880 h1         1 82S       0.080700
     13 H2           1.9230    -0.8900    -0.4890 hc         1 82S       0.057200
     14 H3           1.9230     0.8900    -0.4890 hc         1 82S       0.057200
     15 H4           2.9440    -0.3330     1.7430 hc         1 82S       0.079700
     16 H5           1.9230     2.1810     1.3410 hc         1 82S       0.044700
     17 H6           1.9230     1.5830     3.0180 hc         1 82S       0.044700
     18 H7          -0.3770     1.5820     3.0180 hc         1 82S       0.047200
     19 H8          -0.3770     2.1800     1.3420 hc         1 82S       0.047200
     20 H9           0.2460    -1.6960     4.0210 hc         1 82S       0.041033
     21 H10          1.7950    -0.8410     4.0050 hc         1 82S       0.041033
     22 H11          0.2800     0.0720     3.9880 hc         1 82S       0.041033
     23 H12          0.7470    -2.2660     0.4900 hc         1 82S       0.041033
     24 H13         -0.0980    -2.8150     1.9450 hc         1 82S       0.041033
     25 H14          1.6700    -2.7990     1.9020 hc         1 82S       0.041033
     26 H15         -2.5290     0.1760     1.3340 hc         1 82S       0.045033
     27 H16         -1.9740    -0.4310     2.9000 hc         1 82S       0.045033
     28 H17         -1.9450    -1.4870     1.4820 hc         1 82S       0.045033
@<TRIPOS>BOND
     1     2     3 1
     2     2     1 1
     3    10     1 1
     4     3     4 1
     5     3     6 1
     6     1    11 1
     7     8     6 1
     8     4     5 1
     9     6    11 1
    10     6     7 1
    11    11     5 1
    12    11     9 1
    13     1    12 1
    14     2    13 1
    15     2    14 1
    16     3    15 1
    17     4    16 1
    18     4    17 1
    19     5    18 1
    20     5    19 1
    21     7    20 1
    22     7    21 1
    23     7    22 1
    24     8    23 1
    25     8    24 1
    26     8    25 1
    27     9    26 1
    28     9    27 1
    29     9    28 1
@<TRIPOS>SUBSTRUCTURE
     1 82S         1 TEMP              0 ****  ****    0 ROOT
