@<TRIPOS>MOLECULE
82V
   43    47     1     0     0
SMALL
bcc


@<TRIPOS>ATOM
      1 C10          0.0000     0.0000     0.0000 c3         1 82V       0.138800
      2 C13          3.5200     0.0610    -3.5870 cc         1 82V      -0.143700
      3 C15          2.7160     1.1530    -5.6740 cc         1 82V       0.002900
      4 C17          0.5800     1.9990    -4.7530 ca         1 82V      -0.028000
      5 C20         -1.8340     3.3550    -4.9490 ca         1 82V       0.073100
      6 C22         -2.9760     5.4210    -5.2350 c3         1 82V       0.168400
      7 C26          0.5440     3.2840    -5.2910 ca         1 82V      -0.093000
      8 C02          4.1120    -0.6250    -2.4290 c          1 82V       0.688900
      9 C03          3.3860    -0.6260    -1.2210 cc         1 82V      -0.435200
     10 C04          2.1800     0.0010    -1.1780 cd         1 82V       0.276100
     11 N05          1.4720     0.0000     0.0000 nh         1 82V      -0.374400
     12 C06          2.1630     0.0000     1.2990 c3         1 82V       0.138800
     13 C07          1.5740     1.1230     2.1610 c3         1 82V       0.195900
     14 O08          0.1510     0.9880     2.1990 os         1 82V      -0.402600
     15 C09         -0.4840     1.1220     0.9250 c3         1 82V       0.195900
     16 O11          1.6610     0.6170    -2.2420 os         1 82V      -0.180200
     17 C12          2.2920     0.6680    -3.4480 cd         1 82V       0.141100
     18 S14          4.1040     0.2690    -5.2310 ss         1 82V      -0.138800
     19 C16          1.8700     1.2740    -4.6410 cd         1 82V      -0.063000
     20 C18         -0.5980     1.3980    -4.3140 ca         1 82V      -0.091000
     21 C19         -1.7970     2.0760    -4.4130 ca         1 82V      -0.104000
     22 O21         -3.0280     4.0040    -5.0410 os         1 82V      -0.299900
     23 C23         -1.9500     5.7170    -6.3380 c3         1 82V       0.168400
     24 O24         -0.6780     5.2160    -5.9130 os         1 82V      -0.299900
     25 C25         -0.6600     3.9590    -5.3880 ca         1 82V       0.072100
     26 H1          -0.3640     0.1760    -1.0050 h1         1 82V       0.036450
     27 H2          -0.3640    -0.9530     0.3640 h1         1 82V       0.036450
     28 H3           2.5400     1.5630    -6.6610 h4         1 82V       0.160000
     29 H4          -3.9500     5.7690    -5.5560 h1         1 82V       0.027200
     30 H5          -2.6510     5.8920    -4.3150 h1         1 82V       0.027200
     31 H6           1.4640     3.7720    -5.5880 ha         1 82V       0.122000
     32 H7           3.6880    -1.2760    -0.4080 ha         1 82V       0.155000
     33 H11          3.2210     0.1750     1.1480 h1         1 82V       0.036450
     34 H12          2.0120    -0.9530     1.7910 h1         1 82V       0.036450
     35 H13          1.9700     1.0520     3.1670 h1         1 82V       0.017950
     36 H14          1.8340     2.0820     1.7310 h1         1 82V       0.017950
     37 H15         -1.5580     1.0500     1.0480 h1         1 82V       0.017950
     38 H16         -0.2270     2.0810     0.4930 h1         1 82V       0.017950
     39 H17         -0.5730     0.3990    -3.8950 ha         1 82V       0.112000
     40 H18         -2.7120     1.6070    -4.0710 ha         1 82V       0.116000
     41 H19         -1.8790     6.7900    -6.4750 h1         1 82V       0.027200
     42 H20         -2.2470     5.2040    -7.2440 h1         1 82V       0.027200
     43 O01          5.2010    -1.1750    -2.5120 o          1 82V      -0.598100
@<TRIPOS>BOND
     1     1    11 1   
     2     1    15 1   
     3     1    26 1   
     4     1    27 1   
     5     2     8 1   
     6     2    17 2   
     7     2    18 1   
     8     3    18 1   
     9     3    19 2   
    10     3    28 1   
    11     4     7 ar  
    12     4    19 1   
    13     4    20 ar  
    14     5    21 ar  
    15     5    22 1   
    16     5    25 ar  
    17     6    22 1   
    18     6    23 1   
    19     6    29 1   
    20     6    30 1   
    21     7    25 ar  
    22     7    31 1   
    23     8     9 1   
    24     8    43 2   
    25     9    10 2   
    26     9    32 1   
    27    10    11 1   
    28    10    16 1   
    29    11    12 1   
    30    12    13 1   
    31    12    33 1   
    32    12    34 1   
    33    13    14 1   
    34    13    35 1   
    35    13    36 1   
    36    14    15 1   
    37    15    37 1   
    38    15    38 1   
    39    16    17 1   
    40    17    19 1   
    41    20    21 ar  
    42    20    39 1   
    43    21    40 1   
    44    23    24 1   
    45    23    41 1   
    46    23    42 1   
    47    24    25 1   
@<TRIPOS>SUBSTRUCTURE
     1 82V         1 TEMP              0 ****  ****    0 ROOT
