@<TRIPOS>MOLECULE
molecule
   43    47     1     0     0
SMALL
bcc


@<TRIPOS>ATOM
      1 C10          0.0000     0.0000     0.0000 c3         1 82V       0.204800
      2 C13          3.5200     0.0610    -3.5870 cc         1 82V      -0.198700
      3 C15          2.7160     1.1530    -5.6740 cc         1 82V      -0.093100
      4 C17          0.5800     1.9990    -4.7530 ca         1 82V      -0.027000
      5 C20         -1.8340     3.3550    -4.9490 ca         1 82V       0.067100
      6 C22         -2.9760     5.4210    -5.2350 c3         1 82V       0.098400
      7 C26          0.5440     3.2840    -5.2910 ca         1 82V      -0.111000
      8 C02          4.1120    -0.6250    -2.4290 c          1 82V       0.624900
      9 C03          3.3860    -0.6260    -1.2210 cc         1 82V      -0.426200
     10 C04          2.1800     0.0010    -1.1780 cd         1 82V       0.404100
     11 N05          1.4720     0.0000     0.0000 nh         1 82V      -0.726400
     12 C06          2.1630     0.0000     1.2990 c3         1 82V       0.204800
     13 C07          1.5740     1.1230     2.1610 c3         1 82V       0.117400
     14 O08          0.1510     0.9880     2.1990 os         1 82V      -0.417600
     15 C09         -0.4840     1.1220     0.9250 c3         1 82V       0.117400
     16 O11          1.6610     0.6170    -2.2420 os         1 82V      -0.225200
     17 C12          2.2920     0.6680    -3.4480 cd         1 82V       0.141100
     18 S14          4.1040     0.2690    -5.2310 ss         1 82V       0.029200
     19 C16          1.8700     1.2740    -4.6410 cd         1 82V      -0.066000
     20 C18         -0.5980     1.3980    -4.3140 ca         1 82V      -0.111000
     21 C19         -1.7970     2.0760    -4.4130 ca         1 82V      -0.127000
     22 O21         -3.0280     4.0040    -5.0410 os         1 82V      -0.322900
     23 C23         -1.9500     5.7170    -6.3380 c3         1 82V       0.098400
     24 O24         -0.6780     5.2160    -5.9130 os         1 82V      -0.322900
     25 C25         -0.6600     3.9590    -5.3880 ca         1 82V       0.063100
     26 H1          -0.3640     0.1760    -1.0050 h1         1 82V       0.065950
     27 H2          -0.3640    -0.9530     0.3640 h1         1 82V       0.065950
     28 H3           2.5400     1.5630    -6.6610 h4         1 82V       0.186000
     29 H4          -3.9500     5.7690    -5.5560 h1         1 82V       0.070200
     30 H5          -2.6510     5.8920    -4.3150 h1         1 82V       0.070200
     31 H6           1.4640     3.7720    -5.5880 ha         1 82V       0.150000
     32 H7           3.6880    -1.2760    -0.4080 ha         1 82V       0.171000
     33 H11          3.2210     0.1750     1.1480 h1         1 82V       0.065950
     34 H12          2.0120    -0.9530     1.7910 h1         1 82V       0.065950
     35 H13          1.9700     1.0520     3.1670 h1         1 82V       0.058950
     36 H14          1.8340     2.0820     1.7310 h1         1 82V       0.058950
     37 H15         -1.5580     1.0500     1.0480 h1         1 82V       0.058950
     38 H16         -0.2270     2.0810     0.4930 h1         1 82V       0.058950
     39 H17         -0.5730     0.3990    -3.8950 ha         1 82V       0.141000
     40 H18         -2.7120     1.6070    -4.0710 ha         1 82V       0.146000
     41 H19         -1.8790     6.7900    -6.4750 h1         1 82V       0.070200
     42 H20         -2.2470     5.2040    -7.2440 h1         1 82V       0.070200
     43 O01          5.2010    -1.1750    -2.5120 o          1 82V      -0.571100
@<TRIPOS>BOND
     1    18     3 1   
     2    18     2 1   
     3     3    19 2   
     4    24    23 1   
     5    24    25 1   
     6    23     6 1   
     7     7    25 ar  
     8     7     4 ar  
     9    19     4 1   
    10    19    17 1   
    11    25     5 ar  
    12     2     8 1   
    13     2    17 2   
    14    43     8 2   
    15     4    20 ar  
    16     8     9 1   
    17    17    16 1   
    18     5    22 1   
    19     5    21 ar  
    20     6    22 1   
    21    20    21 ar  
    22    16    10 1   
    23     9    10 2   
    24    10    11 1   
    25    11    12 1   
    26    11     1 1   
    27    12    13 1   
    28     1    15 1   
    29    13    14 1   
    30    15    14 1   
    31     1    26 1   
    32     1    27 1   
    33     3    28 1   
    34     6    29 1   
    35     6    30 1   
    36     7    31 1   
    37     9    32 1   
    38    12    33 1   
    39    12    34 1   
    40    13    35 1   
    41    13    36 1   
    42    15    37 1   
    43    15    38 1   
    44    20    39 1   
    45    21    40 1   
    46    23    41 1   
    47    23    42 1   
@<TRIPOS>SUBSTRUCTURE
     1 82V         1 TEMP              0 ****  ****    0 ROOT
