@<TRIPOS>MOLECULE
82X
   56    57     1     0     0
SMALL
bcc


@<TRIPOS>ATOM
      1 C11        -0.1960   -0.9070    0.3070 c3        1 82X     -0.048000
      2 C12         1.2730   -1.1070    0.1950 c2        1 82X     -0.082000
      3 C13         2.1480   -0.3700    0.9170 c2        1 82X     -0.205000
      4 C14         1.7070    0.7360    1.7020 c1        1 82X      0.004000
      5 C15         0.3230    0.7400    2.0910 c2        1 82X     -0.098000
      6 C19        -2.4290   -4.4750    1.5510 c2        1 82X      0.084000
      7 C20        -1.9950   -5.0590    2.6930 c2        1 82X     -0.196000
      8 C21        -1.9520   -6.4760    2.9580 c2        1 82X     -0.147000
      9 C22        -2.9680   -5.1770    0.4040 c2        1 82X     -0.216000
     10 C23        -3.2170   -4.6440   -0.7810 c1        1 82X     -0.265000
     11 C24        -1.5530   -7.4160    2.0790 c2        1 82X     -0.005000
     12 C25        -1.5200   -8.7840    2.3700 c1        1 82X     -0.212000
     13 C26        -1.4910   -9.9610    2.5960 c1        1 82X     -0.014000
     14 C29        -1.6650  -11.6350    4.3200 c1        1 82X     -0.105000
     15 C30        -0.6850  -12.2760    5.0790 c2        1 82X     -0.264000
     16 C2         -2.8980   -0.9410    2.1320 c2        1 82X     -0.174000
     17 C3         -2.0440    0.1410    1.6260 c2        1 82X     -0.074000
     18 N4         -2.8050    1.2380    1.4230 n2        1 82X      0.012000
     19 O5         -4.0520    0.9600    1.7410 os        1 82X     -0.053000
     20 C6         -4.1620   -0.3790    2.1830 c2        1 82X      0.010000
     21 C7         -0.6120    0.0410    1.3870 c2        1 82X     -0.007000
     22 C8         -5.5020   -0.8610    2.5790 c3        1 82X     -0.048000
     23 C9         -6.0660   -0.0190    3.7080 c3        1 82X     -0.211500
     24 C10        -6.4430   -0.8610    1.3880 c3        1 82X     -0.211500
     25 CL16       -0.0930    1.7310    3.4000 cl        1 82X      0.029000
     26 CL17       -0.8210   -0.3660   -1.2590 cl        1 82X     -0.066000
     27 O18        -2.3820   -3.0960    1.3470 os        1 82X     -0.246000
     28 S27        -3.4940   -4.1050   -2.0780 s         1 82X      0.325000
     29 C28        -1.4450  -11.3730    2.8670 c3        1 82X     -0.133000
     30 C31         0.5480  -12.5810    4.6610 c1        1 82X      0.003000
     31 C32         1.7040  -12.8970    4.2010 c2        1 82X     -0.219000
     32 C33        -2.3810  -12.1410    2.0350 c1        1 82X     -0.001000
     33 C34         1.9680  -14.2170    3.4170 c2        1 82X      0.388000
     34 O35         2.7460  -15.0280    3.9660 o         1 82X     -0.512000
     35 O36         1.4050  -14.3120    2.3010 o         1 82X     -0.512000
     36 H12        -0.6950   -1.9060    0.4990 h1        1 82X      0.189000
     37 H13         1.5960   -1.8670   -0.5340 ha        1 82X      0.154000
     38 H14         3.2360   -0.5450    0.8570 ha        1 82X      0.164000
     39 H20        -1.6530   -4.4320    3.5350 ha        1 82X      0.128000
     40 H21        -2.2440   -6.7650    3.9840 ha        1 82X      0.138000
     41 H22        -3.1850   -6.2500    0.5780 ha        1 82X      0.190000
     42 H25        -1.2130   -7.1400    1.0630 ha        1 82X      0.129000
     43 H8         -5.3780   -1.9240    2.9420 hc        1 82X      0.112000
     44 H9         -7.0740   -0.4040    3.9970 hc        1 82X      0.086333
     45 H9A        -5.3970   -0.0620    4.6010 hc        1 82X      0.086333
     46 H9B        -6.1640    1.0460    3.3870 hc        1 82X      0.086333
     47 H10        -6.5580    0.1740    0.9840 hc        1 82X      0.086333
     48 H10A       -7.4450   -1.2400    1.7010 hc        1 82X      0.086333
     49 H10B       -6.0480   -1.5190    0.5770 hc        1 82X      0.086333
     50 H31        -2.5910  -13.1520    2.4280 ha        1 82X      0.040000
     51 H33         2.6140  -12.2900    4.2980 ha        1 82X      0.172000
     52 H29        -0.4290  -11.7710    2.4870 hc        1 82X      0.162000
     53 C1         -2.4740   -2.2940    2.5350 c3        1 82X      0.045000
     54 H30        -0.9710  -12.5490    6.1130 ha        1 82X      0.138000
     55 H1         -3.2150   -2.7450    3.2490 h1        1 82X      0.095000
     56 H1A        -1.4580   -2.2590    3.0150 h1        1 82X      0.095000
@<TRIPOS>BOND
     1    1    2 1   
     2    1   21 1   
     3    1   26 1   
     4    1   36 1   
     5    2    3 1   
     6    2   37 1   
     7    3    4 1   
     8    3   38 1   
     9    4    5 1   
    10    5   21 1   
    11    5   25 1   
    12    6    7 1   
    13    6    9 1   
    14    6   27 1   
    15    7    8 1   
    16    7   39 1   
    17    8   11 1   
    18    8   40 1   
    19    9   10 1   
    20    9   41 1   
    21   10   28 1   
    22   11   12 1   
    23   11   42 1   
    24   12   13 1   
    25   13   29 1   
    26   14   15 1   
    27   14   29 1   
    28   15   30 1   
    29   15   54 1   
    30   16   17 1   
    31   16   20 1   
    32   16   53 1   
    33   17   18 1   
    34   17   21 1   
    35   18   19 1   
    36   19   20 1   
    37   20   22 1   
    38   22   23 1   
    39   22   24 1   
    40   22   43 1   
    41   23   44 1   
    42   23   45 1   
    43   23   46 1   
    44   24   47 1   
    45   24   48 1   
    46   24   49 1   
    47   27   53 1   
    48   29   32 1   
    49   29   52 1   
    50   30   31 1   
    51   31   33 1   
    52   31   51 1   
    53   32   50 1   
    54   33   34 1   
    55   33   35 1   
    56   53   55 1   
    57   53   56 1   
@<TRIPOS>SUBSTRUCTURE
     1 82X         1 TEMP              0 ****  ****    0 ROOT
