@<TRIPOS>MOLECULE
82Y
   42    45     1     0     0
SMALL
bcc


@<TRIPOS>ATOM
      1 C10          0.0000     0.0000     0.0000 ca         1 82Y      -0.059000
      2 C15         -1.7660     0.9050     3.9500 cc         1 82Y       0.141100
      3 C17         -3.2630     2.6960     3.5440 cc         1 82Y       0.273100
      4 C22         -4.2390     4.9440     3.1840 c3         1 82Y       0.138800
      5 C26         -3.6620     3.4640     1.2230 c3         1 82Y       0.138800
      6 O01          2.1730     0.0020    -3.6700 oh         1 82Y      -0.435100
      7 N02          1.4640     0.0000    -2.4460 ns         1 82Y      -0.061400
      8 C03          2.1370     0.0010    -1.2780 c          1 82Y       0.594700
      9 O04          3.3520     0.0010    -1.2770 o          1 82Y      -0.616100
     10 C05          1.3980     0.0000     0.0000 ca         1 82Y      -0.151600
     11 C06          2.0950     0.0000     1.2110 ca         1 82Y      -0.059000
     12 C07          1.4090    -0.0010     2.3980 ca         1 82Y      -0.100000
     13 C08          0.0130    -0.0020     2.3960 ca         1 82Y       0.002000
     14 C09         -0.6850    -0.0010     1.1870 ca         1 82Y      -0.100000
     15 C11         -0.7290    -0.0020     3.6780 cc         1 82Y      -0.078000
     16 C12         -0.4580    -0.8700     4.6660 cd         1 82Y       0.006900
     17 S13         -1.4790    -0.6160     6.0060 ss         1 82Y      -0.130800
     18 C14         -2.3040     0.7120     5.2020 cd         1 82Y      -0.141700
     19 O16         -2.2640     1.8960     3.1600 os         1 82Y      -0.181200
     20 C18         -3.8580     2.5760     4.7610 cd         1 82Y      -0.430200
     21 C19         -3.4040     1.5790     5.6480 c          1 82Y       0.687900
     22 O20         -3.9100     1.4380     6.7520 o          1 82Y      -0.595100
     23 N21         -3.7070     3.6680     2.6790 nh         1 82Y      -0.373400
     24 C23         -3.5290     6.0880     2.4500 c3         1 82Y       0.195900
     25 O24         -3.6240     5.8730     1.0400 os         1 82Y      -0.400600
     26 C25         -2.9810     4.6800     0.5840 c3         1 82Y       0.195900
     27 H1          -0.5420     0.0000    -0.9380 ha         1 82Y       0.115000
     28 H3          -4.0500     5.0220     4.2480 h1         1 82Y       0.035950
     29 H4          -5.3040     4.9950     2.9920 h1         1 82Y       0.035950
     30 H5          -4.6710     3.3690     0.8380 h1         1 82Y       0.035950
     31 H6          -3.0950     2.5690     0.9980 h1         1 82Y       0.035950
     32 H7           1.5730     0.1590    -4.3810 ho         1 82Y       0.392000
     33 H8           0.4630    -0.0360    -2.4470 hn         1 82Y       0.160500
     34 H9           3.1790     0.0000     1.2130 ha         1 82Y       0.115000
     35 H10          1.9490    -0.0010     3.3370 ha         1 82Y       0.113500
     36 H11         -1.7680    -0.0020     1.1870 ha         1 82Y       0.113500
     37 H12          0.3100    -1.6330     4.6170 h4         1 82Y       0.160000
     38 H13         -4.6660     3.2390     5.0460 ha         1 82Y       0.156000
     39 H16         -4.0020     7.0280     2.7040 h1         1 82Y       0.017700
     40 H17         -2.4860     6.1110     2.7420 h1         1 82Y       0.017700
     41 H18         -1.9360     4.7010     0.8720 h1         1 82Y       0.017700
     42 H19         -3.0630     4.6150    -0.4940 h1         1 82Y       0.017700
@<TRIPOS>BOND
     1     1    10 ar  
     2     1    14 ar  
     3     1    27 1   
     4     2    15 1   
     5     2    18 2   
     6     2    19 1   
     7     3    19 1   
     8     3    20 2   
     9     3    23 1   
    10     4    23 1   
    11     4    24 1   
    12     4    28 1   
    13     4    29 1   
    14     5    23 1   
    15     5    26 1   
    16     5    30 1   
    17     5    31 1   
    18     6     7 1   
    19     6    32 1   
    20     7     8 1   
    21     7    33 1   
    22     8     9 2   
    23     8    10 1   
    24    10    11 ar  
    25    11    12 ar  
    26    11    34 1   
    27    12    13 ar  
    28    12    35 1   
    29    13    14 ar  
    30    13    15 1   
    31    14    36 1   
    32    15    16 2   
    33    16    17 1   
    34    16    37 1   
    35    17    18 1   
    36    18    21 1   
    37    20    21 1   
    38    20    38 1   
    39    21    22 2   
    40    24    25 1   
    41    24    39 1   
    42    24    40 1   
    43    25    26 1   
    44    26    41 1   
    45    26    42 1   
@<TRIPOS>SUBSTRUCTURE
     1 82Y         1 TEMP              0 ****  ****    0 ROOT
