@<TRIPOS>MOLECULE
molecule
   62    66     1     0     0
SMALL
bcc


@<TRIPOS>ATOM
      1 C1           0.0000     0.0000     0.0000 c3         1 831       0.150600
      2 F1           7.2010    -1.0200   -15.2640 f          1 831      -0.219967
      3 N1           1.4690     0.0000     0.0000 n3         1 831      -0.725600
      4 O1           2.8680     0.4820   -12.7940 o          1 831      -0.582100
      5 C2           1.9950     0.0000     1.3720 c3         1 831       0.150600
      6 F2           7.6100     1.1860   -14.8330 f          1 831      -0.219967
      7 N2          -0.0120    -0.9990    -8.3750 nc         1 831      -0.566100
      8 C3           1.9950    -1.1380    -0.7650 c3         1 831       0.209100
      9 F3           7.7260     0.4010   -16.9750 f          1 831      -0.219967
     10 N3           0.2550     0.3740    -8.3290 na         1 831       0.049200
     11 C4           1.6370    -0.9740    -2.2200 ca         1 831      -0.085300
     12 N4           0.9730     1.9390    -6.7240 nc         1 831      -0.667000
     13 C5           0.4470    -1.4910    -2.7000 ca         1 831      -0.117500
     14 N5           1.1450     1.0500   -14.0750 ns         1 831      -0.476100
     15 C6           0.1130    -1.3430    -4.0300 ca         1 831      -0.116500
     16 C7           0.9790    -0.6710    -4.8930 ca         1 831       0.001200
     17 C8           2.1770    -0.1520    -4.4030 ca         1 831      -0.116500
     18 C9           2.4970    -0.3020    -3.0700 ca         1 831      -0.117500
     19 C10          0.6260    -0.5100    -6.3220 cd         1 831      -0.270800
     20 C11          0.2070    -1.5210    -7.1930 cd         1 831       0.428500
     21 C12          0.6530     0.6850    -7.0550 cc         1 831       0.410500
     22 C13          0.9180     2.9120    -7.6060 cd         1 831       0.460200
     23 C14          0.5200     2.6540    -8.9190 cd         1 831      -0.311300
     24 C15          0.1840     1.3640    -9.2790 cc         1 831       0.117700
     25 C16         -0.2410     1.0540   -10.6590 ca         1 831      -0.052000
     26 C17         -1.5430     0.6140   -10.9100 ca         1 831      -0.095000
     27 C18         -1.9380     0.3260   -12.2000 ca         1 831      -0.115000
     28 C19         -1.0490     0.4690   -13.2480 ca         1 831      -0.140000
     29 C20          0.2500     0.9060   -13.0100 ca         1 831       0.047600
     30 C21          0.6550     1.2060   -11.7190 ca         1 831      -0.089000
     31 C22          2.4520     0.7740   -13.8980 c          1 831       0.675700
     32 C23          3.3810     0.8260   -15.0470 ca         1 831      -0.153600
     33 C24          2.9080     1.1620   -16.3160 ca         1 831      -0.080000
     34 C25          3.7800     1.2090   -17.3840 ca         1 831      -0.140000
     35 C26          5.1210     0.9260   -17.1980 ca         1 831      -0.059000
     36 C27          5.5970     0.5930   -15.9430 ca         1 831      -0.189300
     37 C28          4.7360     0.5470   -14.8660 ca         1 831      -0.017000
     38 C29          7.0590     0.2850   -15.7510 c3         1 831       0.676200
     39 H1          -0.3610     0.5650     0.8510 h1         1 831       0.031867
     40 H1A         -0.3610    -1.0190     0.0640 h1         1 831       0.031867
     41 H1B         -0.3610     0.4550    -0.9150 h1         1 831       0.031867
     42 H2           3.0770     0.0120     1.3440 h1         1 831       0.031867
     43 H2A          1.6570    -0.8900     1.8880 h1         1 831       0.031867
     44 H2B          1.6370     0.8790     1.8950 h1         1 831       0.031867
     45 H3           3.0720    -1.1770    -0.6610 h1         1 831       0.037700
     46 H3A          1.5620    -2.0580    -0.3890 h1         1 831       0.037700
     47 H5          -0.2250    -2.0130    -2.0290 ha         1 831       0.129000
     48 HN5          0.8210     1.3930   -14.9580 hn         1 831       0.326500
     49 H6          -0.8200    -1.7490    -4.4040 ha         1 831       0.134000
     50 H8           2.8530     0.3730    -5.0680 ha         1 831       0.134000
     51 H9           3.4280     0.1010    -2.6890 ha         1 831       0.129000
     52 H11          0.0820    -2.5650    -6.9320 h4         1 831       0.066800
     53 H13          1.1840     3.9200    -7.3120 h4         1 831       0.036100
     54 H14          0.4750     3.4550    -9.6470 ha         1 831       0.162000
     55 H17         -2.2430     0.5010   -10.0910 ha         1 831       0.144000
     56 H18         -2.9480    -0.0150   -12.3920 ha         1 831       0.139000
     57 H19         -1.3640     0.2410   -14.2590 ha         1 831       0.132000
     58 H21          1.6300     1.6440   -11.5450 ha         1 831       0.167000
     59 H24          1.8580     1.3840   -16.4630 ha         1 831       0.130000
     60 H25          3.4140     1.4690   -18.3700 ha         1 831       0.144000
     61 H26          5.8010     0.9630   -18.0410 ha         1 831       0.155000
     62 H28          5.1100     0.2860   -13.8830 ha         1 831       0.173000
@<TRIPOS>BOND
     1     3     1 1   
     2     1    39 1   
     3     1    40 1   
     4     1    41 1   
     5    38     2 1   
     6     5     3 1   
     7     3     8 1   
     8    31     4 2   
     9     5    42 1   
    10     5    43 1   
    11     5    44 1   
    12    38     6 1   
    13    10     7 1   
    14    20     7 2   
    15     8    11 1   
    16     8    45 1   
    17     8    46 1   
    18     9    38 1   
    19    21    10 1   
    20    10    24 1   
    21    13    11 ar  
    22    11    18 ar  
    23    12    22 2   
    24    12    21 1   
    25    13    15 ar  
    26    13    47 1   
    27    29    14 1   
    28    14    31 1   
    29    14    48 1   
    30    15    16 ar  
    31    15    49 1   
    32    16    19 1   
    33    16    17 ar  
    34    18    17 ar  
    35    17    50 1   
    36    18    51 1   
    37    21    19 2   
    38    19    20 1   
    39    20    52 1   
    40    22    23 1   
    41    22    53 1   
    42    23    24 2   
    43    23    54 1   
    44    24    25 1   
    45    26    25 ar  
    46    25    30 ar  
    47    26    27 ar  
    48    26    55 1   
    49    27    28 ar  
    50    27    56 1   
    51    28    29 ar  
    52    28    57 1   
    53    30    29 ar  
    54    30    58 1   
    55    31    32 1   
    56    32    33 ar  
    57    32    37 ar  
    58    33    34 ar  
    59    33    59 1   
    60    34    35 ar  
    61    34    60 1   
    62    36    35 ar  
    63    35    61 1   
    64    37    36 ar  
    65    36    38 1   
    66    37    62 1   
@<TRIPOS>SUBSTRUCTURE
     1 831         1 TEMP              0 ****  ****    0 ROOT
