@<TRIPOS>MOLECULE
molecule
   27    29     1     0     0
SMALL
bcc


@<TRIPOS>ATOM
      1 C1           0.0000     0.0000     0.0000 ca         1 833      -0.090000
      2 C2           1.3940     0.0000     0.0000 ca         1 833      -0.106500
      3 C3           2.0880     0.0000     1.2080 ca         1 833      -0.109000
      4 C4           1.3970     0.0020     2.4020 ca         1 833      -0.118000
      5 C5           0.0100     0.0030     2.4050 ca         1 833       0.051100
      6 C6          -0.6900     0.0020     1.1990 ca         1 833       0.043100
      7 O7          -2.0280     0.0030     1.4720 os         1 833      -0.326900
      8 C8          -2.1390     0.4180     2.8460 c3         1 833       0.331200
      9 O9          -0.8910     0.0030     3.4310 os         1 833      -0.327900
     10 C10          2.1360    -0.0020    -1.2850 cc         1 833       0.396800
     11 C11          3.5370    -0.0030    -1.4300 cc         1 833      -0.344300
     12 C12          3.8160    -0.0060    -2.7600 cd         1 833       0.167300
     13 N13          2.6360    -0.0070    -3.4310 na         1 833       0.053400
     14 N14          1.6000    -0.0100    -2.4870 nd         1 833      -0.505800
     15 N15          5.0860    -0.0070    -3.3320 nv         1 833      -0.960200
     16 C16          2.4730    -0.0100    -4.8870 c3         1 833       0.065600
     17 H1          -0.5420    -0.0000    -0.9380 ha         1 833       0.161000
     18 H3           3.1710    -0.0000     1.2090 ha         1 833       0.144000
     19 H4           1.9390     0.0020     3.3400 ha         1 833       0.144000
     20 H8          -2.2290     1.4960     2.8980 h2         1 833       0.070700
     21 H8A         -2.9600    -0.1050     3.3220 h2         1 833       0.070700
     22 H11          4.2620    -0.0020    -0.6250 ha         1 833       0.158000
     23 HN15         5.5500     0.8590    -3.5210 hn         1 833       0.436800
     24 HN1A         5.5500    -0.8740    -3.5180 hn         1 833       0.436800
     25 H16          1.4170    -0.0100    -5.1320 h1         1 833       0.053033
     26 H16A         2.9400     0.8740    -5.3040 h1         1 833       0.053033
     27 H16B         2.9400    -0.8950    -5.3010 h1         1 833       0.053033
@<TRIPOS>BOND
     1     1     2 ar  
     2     1     6 ar  
     3     2     3 ar  
     4     2    10 1   
     5     3     4 ar  
     6     4     5 ar  
     7     5     6 ar  
     8     5     9 1   
     9     6     7 1   
    10     7     8 1   
    11     8     9 1   
    12    10    11 1   
    13    10    14 2   
    14    11    12 2   
    15    12    13 1   
    16    12    15 1   
    17    13    14 1   
    18    13    16 1   
    19     1    17 1   
    20     3    18 1   
    21     4    19 1   
    22     8    20 1   
    23     8    21 1   
    24    11    22 1   
    25    15    23 1   
    26    15    24 1   
    27    16    25 1   
    28    16    26 1   
    29    16    27 1   
@<TRIPOS>SUBSTRUCTURE
     1 833         1 TEMP              0 ****  ****    0 ROOT
