@<TRIPOS>MOLECULE
molecule
   54    57     1     0     0
SMALL
bcc


@<TRIPOS>ATOM
      1 C1           0.0000     0.0000     0.0000 ca         1 834      -0.111000
      2 C2           1.3800     0.0000     0.0000 ca         1 834      -0.131000
      3 C3           2.0760     0.0000     1.1960 ca         1 834      -0.115000
      4 C4           1.3940    -0.0000     2.4000 ca         1 834      -0.125000
      5 C5           0.0140     0.0010     2.4140 ca         1 834       0.069400
      6 C6          -0.6940     0.0070     1.2100 ca         1 834      -0.083500
      7 C7          -2.1730     0.0080     1.2180 cc         1 834       0.482000
      8 Cl8         -0.8410     0.0000     3.9250 cl         1 834      -0.076400
      9 N9          -2.9390    -0.5960     2.0980 nd         1 834      -0.659000
     10 C10         -4.2230    -0.3780     1.7910 cd         1 834       0.329600
     11 C11         -4.2700     0.3890     0.6830 cc         1 834      -0.219900
     12 N12         -2.9760     0.6420     0.3150 na         1 834      -0.046500
     13 C13         -5.4130    -0.8990     2.5540 c3         1 834      -0.103400
     14 C17         -5.5130     0.8760    -0.0170 c3         1 834       0.004600
     15 N18         -2.5560     1.4020    -0.7840 ns         1 834      -0.479200
     16 C19         -1.6830     2.4140    -0.6100 c          1 834       0.676700
     17 C24         -5.4630     2.4010    -0.1370 c3         1 834      -0.093100
     18 C28         -5.5900     0.2560    -1.4130 c3         1 834      -0.093100
     19 O34         -1.1780     2.6000     0.4800 o          1 834      -0.565100
     20 C35         -1.3390     3.2960    -1.7420 ca         1 834      -0.160600
     21 C36         -1.8170     3.0090    -3.0240 ca         1 834      -0.103000
     22 C37         -1.4930     3.8330    -4.0780 ca         1 834      -0.140000
     23 C38         -0.6920     4.9510    -3.8750 ca         1 834       0.096100
     24 C39         -0.2130     5.2430    -2.6000 ca         1 834       0.048100
     25 C40         -0.5390     4.4220    -1.5360 ca         1 834      -0.000300
     26 C41         -0.0250     4.7390    -0.1550 c3         1 834      -0.044800
     27 O47         -0.3820     5.7480    -4.9320 os         1 834      -0.317900
     28 C48          0.1060     7.0590    -4.6290 c3         1 834       0.095400
     29 C49          1.1760     6.9320    -3.5350 c3         1 834       0.100400
     30 O50          0.5690     6.3360    -2.3830 os         1 834      -0.315900
     31 H1          -0.5430     0.0030    -0.9370 ha         1 834       0.130000
     32 H2           1.9200    -0.0030    -0.9390 ha         1 834       0.131000
     33 H3           3.1590    -0.0000     1.1890 ha         1 834       0.133000
     34 H4           1.9440    -0.0030     3.3330 ha         1 834       0.144000
     35 H13         -6.0010    -0.0660     2.9190 hc         1 834       0.046033
     36 H13A        -5.0710    -1.4950     3.3920 hc         1 834       0.046033
     37 H13B        -6.0210    -1.5120     1.8990 hc         1 834       0.046033
     38 H17         -6.3870     0.5880     0.5550 hc         1 834       0.072700
     39 HN18        -2.8700     1.1660    -1.7050 hn         1 834       0.346500
     40 H24         -6.4730     2.7950    -0.1560 hc         1 834       0.038367
     41 H24A        -4.9520     2.6740    -1.0520 hc         1 834       0.038367
     42 H24B        -4.9310     2.8130     0.7120 hc         1 834       0.038367
     43 H28         -4.9750    -0.6350    -1.4470 hc         1 834       0.038367
     44 H28A        -5.2320     0.9700    -2.1450 hc         1 834       0.038367
     45 H28B        -6.6170    -0.0050    -1.6360 hc         1 834       0.038367
     46 H36         -2.3930     2.1080    -3.1980 ha         1 834       0.126000
     47 H37         -1.8650     3.6100    -5.0710 ha         1 834       0.150000
     48 H41          0.6700     3.9690     0.1570 hc         1 834       0.062700
     49 H41A         0.4790     5.6980    -0.1680 hc         1 834       0.062700
     50 H41B        -0.8560     4.7780     0.5390 hc         1 834       0.062700
     51 H48         -0.7090     7.6770    -4.2720 h1         1 834       0.072200
     52 H48A         0.5440     7.4990    -5.5170 h1         1 834       0.072200
     53 H49          1.5330     7.9210    -3.2740 h1         1 834       0.073200
     54 H49A         1.9700     6.2860    -3.8900 h1         1 834       0.073200
@<TRIPOS>BOND
     1     6     1 ar  
     2     1     2 ar  
     3     1    31 1   
     4     2     3 ar  
     5     2    32 1   
     6     4     3 ar  
     7     3    33 1   
     8     5     4 ar  
     9     4    34 1   
    10     6     5 ar  
    11     5     8 1   
    12     7     6 1   
    13     9     7 2   
    14    12     7 1   
    15    10     9 1   
    16    13    10 1   
    17    10    11 2   
    18    14    11 1   
    19    11    12 1   
    20    12    15 1   
    21    13    35 1   
    22    13    36 1   
    23    13    37 1   
    24    17    14 1   
    25    14    18 1   
    26    14    38 1   
    27    15    16 1   
    28    15    39 1   
    29    19    16 2   
    30    16    20 1   
    31    17    40 1   
    32    17    41 1   
    33    17    42 1   
    34    18    43 1   
    35    18    44 1   
    36    18    45 1   
    37    20    25 ar  
    38    20    21 ar  
    39    21    22 ar  
    40    21    46 1   
    41    22    23 ar  
    42    22    47 1   
    43    24    23 ar  
    44    23    27 1   
    45    25    24 ar  
    46    24    30 1   
    47    26    25 1   
    48    26    48 1   
    49    26    49 1   
    50    26    50 1   
    51    27    28 1   
    52    29    28 1   
    53    28    51 1   
    54    28    52 1   
    55    30    29 1   
    56    29    53 1   
    57    29    54 1   
@<TRIPOS>SUBSTRUCTURE
     1 834         1 TEMP              0 ****  ****    0 ROOT
