@<TRIPOS>MOLECULE
molecule
   63    67     1     0     0
SMALL
bcc


@<TRIPOS>ATOM
      1 N1           0.0000     0.0000     0.0000 no         1 836       0.292200
      2 N3           6.2360    -0.3090     6.4440 nb         1 836      -0.315000
      3 C4           4.2960    -0.0040    -2.5150 c3         1 836       0.677200
      4 C5           4.2490     0.0000     0.0000 ca         1 836      -0.049600
      5 C6           3.5480     0.0000     1.2070 ca         1 836      -0.119000
      6 C7           2.1690     0.0010     1.2000 ca         1 836      -0.052000
      7 C8           5.7270    -0.0000    -0.0000 c          1 836       0.658700
      8 C10          7.8610    -0.8650     0.7950 c3         1 836       0.124700
      9 C13          7.7250     0.5280     2.8620 c3         1 836       0.183800
     10 C15          8.0470    -0.5030     5.0450 ca         1 836       0.591200
     11 C17          8.4110    -0.3830     7.4370 ca         1 836      -0.114300
     12 C20         11.1460    -0.5740     7.0660 ca         1 836      -0.121000
     13 C21         10.3370    -0.5900     5.9660 ca         1 836      -0.090000
     14 C22          6.9570    -0.2860     7.5560 ca         1 836       0.440800
     15 C24          6.5030     0.8440     9.7940 cc         1 836      -0.328300
     16 N01          6.4010    -0.9290     0.7070 n          1 836      -0.477800
     17 C1           1.4800     0.0010    -0.0000 ca         1 836      -0.151200
     18 O1           6.3360     0.8370    -0.6390 o          1 836      -0.572100
     19 C11          8.3730    -2.0240     1.6560 c3         1 836      -0.098400
     20 C12          7.8170    -1.8840     3.0750 c3         1 836       0.183800
     21 C14          8.2790     0.4610     1.4380 c3         1 836      -0.098400
     22 C16          8.9530    -0.4950     6.1310 ca         1 836      -0.111300
     23 C18          9.2650    -0.3700     8.5420 ca         1 836      -0.109000
     24 C19         10.6130    -0.4650     8.3470 ca         1 836      -0.106000
     25 O2          -0.6090    -0.0050    -1.0550 o          1 836      -0.195000
     26 C2           2.1690     0.0000    -1.2010 ca         1 836      -0.035000
     27 F2           3.3840     0.0020    -3.5750 f          1 836      -0.209300
     28 N2           8.2440    -0.6010     3.6440 nh         1 836      -0.765300
     29 C23          6.3100    -0.1670     8.8770 cd         1 836      -0.130800
     30 C25          5.7010     0.5690    10.9010 cc         1 836       0.330200
     31 O3          -0.6100    -0.0010     1.0550 o          1 836      -0.195000
     32 C3           3.5480    -0.0050    -1.2070 ca         1 836      -0.151300
     33 F3           5.0950    -1.1500    -2.5950 f          1 836      -0.209300
     34 F4           5.1050     1.1350    -2.5900 f          1 836      -0.209300
     35 N4           6.7510    -0.4090     5.2760 nb         1 836      -0.393000
     36 N5           5.0500    -0.5460    10.6820 nd         1 836      -0.501800
     37 N6           5.4090    -1.0350     9.4190 na         1 836       0.087400
     38 C9           5.6720    -2.0010     1.3900 c3         1 836       0.074300
     39 H1           4.0860     0.0000     2.1470 ha         1 836       0.169000
     40 H2           1.6230     0.0010     2.1360 ha         1 836       0.176000
     41 H3           8.2920    -0.9360    -0.1970 h1         1 836       0.072700
     42 H4           6.6440     0.4760     2.8300 h1         1 836       0.047950
     43 H5           8.0340     1.4580     3.3240 h1         1 836       0.047950
     44 H6          12.2190    -0.6470     6.9390 ha         1 836       0.139000
     45 H7          10.7650    -0.6760     4.9750 ha         1 836       0.156000
     46 H9           4.2940    -2.8040     9.5050 h1         1 836       0.059367
     47 H10          5.7410    -2.8800     8.4900 h1         1 836       0.059367
     48 H11          4.3100    -2.0050     7.9260 h1         1 836       0.059367
     49 H12          8.0420    -2.9630     1.2290 hc         1 836       0.068200
     50 H13          9.4560    -1.9970     1.6890 hc         1 836       0.068200
     51 H14          6.7340    -1.9200     3.0420 h1         1 836       0.047950
     52 H15          8.1920    -2.6930     3.6890 h1         1 836       0.047950
     53 H16          7.8820     1.2840     0.8570 hc         1 836       0.068200
     54 H17          9.3610     0.5220     1.4680 hc         1 836       0.068200
     55 H18          8.8610    -0.2860     9.5430 ha         1 836       0.157000
     56 H19         11.2780    -0.4540     9.2020 ha         1 836       0.139000
     57 H20          1.6230    -0.0020    -2.1370 ha         1 836       0.189000
     58 H21          5.6280     1.1770    11.7950 h4         1 836       0.051100
     59 H22          4.8200    -2.2970     0.7900 h1         1 836       0.050033
     60 H23          5.3280    -1.6470     2.3540 h1         1 836       0.050033
     61 H24          6.3280    -2.8520     1.5300 h1         1 836       0.050033
     62 H8           7.1590     1.6980     9.6770 ha         1 836       0.159000
     63 C26          4.9060    -2.2610     8.7940 c3         1 836       0.061600
@<TRIPOS>BOND
     1    33     3 1
     2    34     3 1
     3    27     3 1
     4     3    32 1
     5    21     9 1
     6    21     8 1
     7     9    28 1
     8    32    26 ar
     9    32     4 ar
    10    26    17 ar
    11    25     1 1
    12     8    16 1
    13     8    19 1
    14    18     7 2
    15    16    38 1
    16    16     7 1
    17     7     4 1
    18     4     5 ar
    19    28    10 1
    20    28    20 1
    21    35    10 ar
    22    35     2 ar
    23    17     1 1
    24    17     6 ar
    25     1    31 1
    26    10    22 ar
    27     2    14 ar
    28    15    30 1
    29    15    29 2
    30    20    19 1
    31    30    36 2
    32     5     6 ar
    33    22    13 ar
    34    22    11 ar
    35    14    29 1
    36    14    11 ar
    37    29    37 1
    38    13    12 ar
    39    11    23 ar
    40    36    37 1
    41    37    63 1
    42    12    24 ar
    43    23    24 ar
    44     5    39 1
    45     6    40 1
    46     8    41 1
    47     9    42 1
    48     9    43 1
    49    12    44 1
    50    13    45 1
    51    15    62 1
    52    63    46 1
    53    63    47 1
    54    63    48 1
    55    19    49 1
    56    19    50 1
    57    20    51 1
    58    20    52 1
    59    21    53 1
    60    21    54 1
    61    23    55 1
    62    24    56 1
    63    26    57 1
    64    30    58 1
    65    38    59 1
    66    38    60 1
    67    38    61 1
@<TRIPOS>SUBSTRUCTURE
     1 836         1 TEMP              0 ****  ****    0 ROOT
