@<TRIPOS>MOLECULE
836
   63    67     1     0     0
SMALL
bcc


@<TRIPOS>ATOM
      1 N1           0.0000     0.0000     0.0000 no         1 836       1.044200
      2 N3           6.2360    -0.3090     6.4440 nb         1 836      -0.282000
      3 C4           4.2960    -0.0040    -2.5150 c3         1 836       0.648200
      4 C5           4.2490     0.0000     0.0000 ca         1 836      -0.022600
      5 C6           3.5480     0.0000     1.2070 ca         1 836      -0.113000
      6 C7           2.1690     0.0010     1.2000 ca         1 836       0.016000
      7 C8           5.7270    -0.0000    -0.0000 c          1 836       0.578700
      8 C10          7.8610    -0.8650     0.7950 c3         1 836       0.042700
      9 C13          7.7250     0.5280     2.8620 c3         1 836       0.137800
     10 C15          8.0470    -0.5030     5.0450 ca         1 836       0.492200
     11 C17          8.4110    -0.3830     7.4370 ca         1 836      -0.114300
     12 C20         11.1460    -0.5740     7.0660 ca         1 836      -0.090000
     13 C21         10.3370    -0.5900     5.9660 ca         1 836      -0.063000
     14 C22          6.9570    -0.2860     7.5560 ca         1 836       0.441800
     15 C24          6.5030     0.8440     9.7940 cc         1 836      -0.315300
     16 N01          6.4010    -0.9290     0.7070 n          1 836      -0.128800
     17 C1           1.4800     0.0010    -0.0000 ca         1 836      -0.446200
     18 O1           6.3360     0.8370    -0.6390 o          1 836      -0.612100
     19 C11          8.3730    -2.0240     1.6560 c3         1 836      -0.049900
     20 C12          7.8170    -1.8840     3.0750 c3         1 836       0.137800
     21 C14          8.2790     0.4610     1.4380 c3         1 836      -0.049900
     22 C16          8.9530    -0.4950     6.1310 ca         1 836      -0.108300
     23 C18          9.2650    -0.3700     8.5420 ca         1 836      -0.085000
     24 C19         10.6130    -0.4650     8.3470 ca         1 836      -0.075000
     25 O2          -0.6090    -0.0050    -1.0550 o          1 836      -0.441000
     26 C2           2.1690     0.0000    -1.2010 ca         1 836       0.035000
     27 F2           3.3840     0.0020    -3.5750 f          1 836      -0.199633
     28 N2           8.2440    -0.6010     3.6440 nh         1 836      -0.519300
     29 C23          6.3100    -0.1670     8.8770 cd         1 836      -0.296800
     30 C25          5.7010     0.5690    10.9010 cc         1 836       0.393200
     31 O3          -0.6100    -0.0010     1.0550 o          1 836      -0.441000
     32 C3           3.5480    -0.0050    -1.2070 ca         1 836      -0.185300
     33 F3           5.0950    -1.1500    -2.5950 f          1 836      -0.199633
     34 F4           5.1050     1.1350    -2.5900 f          1 836      -0.199633
     35 N4           6.7510    -0.4090     5.2760 nb         1 836      -0.364000
     36 N5           5.0500    -0.5460    10.6820 nd         1 836      -0.645800
     37 N6           5.4090    -1.0350     9.4190 na         1 836       0.519400
     38 C9           5.6720    -2.0010     1.3900 c3         1 836       0.026300
     39 H1           4.0860     0.0000     2.1470 ha         1 836       0.136000
     40 H2           1.6230     0.0010     2.1360 ha         1 836       0.139000
     41 H3           8.2920    -0.9360    -0.1970 h1         1 836       0.046700
     42 H4           6.6440     0.4760     2.8300 h1         1 836       0.025200
     43 H5           8.0340     1.4580     3.3240 h1         1 836       0.025200
     44 H6          12.2190    -0.6470     6.9390 ha         1 836       0.109000
     45 H7          10.7650    -0.6760     4.9750 ha         1 836       0.125000
     46 H9           4.2940    -2.8040     9.5050 h1         1 836       0.026367
     47 H10          5.7410    -2.8800     8.4900 h1         1 836       0.026367
     48 H11          4.3100    -2.0050     7.9260 h1         1 836       0.026367
     49 H12          8.0420    -2.9630     1.2290 hc         1 836       0.040450
     50 H13          9.4560    -1.9970     1.6890 hc         1 836       0.040450
     51 H14          6.7340    -1.9200     3.0420 h1         1 836       0.025200
     52 H15          8.1920    -2.6930     3.6890 h1         1 836       0.025200
     53 H16          7.8820     1.2840     0.8570 hc         1 836       0.040450
     54 H17          9.3610     0.5220     1.4680 hc         1 836       0.040450
     55 H18          8.8610    -0.2860     9.5430 ha         1 836       0.129000
     56 H19         11.2780    -0.4540     9.2020 ha         1 836       0.109000
     57 H20          1.6230    -0.0020    -2.1370 ha         1 836       0.153000
     58 H21          5.6280     1.1770    11.7950 h4         1 836       0.005100
     59 H22          4.8200    -2.2970     0.7900 h1         1 836       0.029700
     60 H23          5.3280    -1.6470     2.3540 h1         1 836       0.029700
     61 H24          6.3280    -2.8520     1.5300 h1         1 836       0.029700
     62 H8           7.1590     1.6980     9.6770 ha         1 836       0.138000
     63 C26          4.9060    -2.2610     8.7940 c3         1 836       0.014600
@<TRIPOS>BOND
     1     1    17 1   
     2     1    25 1   
     3     1    31 1   
     4     2    14 ar  
     5     2    35 ar  
     6     3    27 1   
     7     3    32 1   
     8     3    33 1   
     9     3    34 1   
    10     4     5 ar  
    11     4     7 1   
    12     4    32 ar  
    13     5     6 ar  
    14     5    39 1   
    15     6    17 ar  
    16     6    40 1   
    17     7    16 1   
    18     7    18 2   
    19     8    16 1   
    20     8    19 1   
    21     8    21 1   
    22     8    41 1   
    23     9    21 1   
    24     9    28 1   
    25     9    42 1   
    26     9    43 1   
    27    10    22 ar  
    28    10    28 1   
    29    10    35 ar  
    30    11    14 ar  
    31    11    22 ar  
    32    11    23 ar  
    33    12    13 ar  
    34    12    24 ar  
    35    12    44 1   
    36    13    22 ar  
    37    13    45 1   
    38    14    29 1   
    39    15    29 2   
    40    15    30 1   
    41    15    62 1   
    42    16    38 1   
    43    17    26 ar  
    44    19    20 1   
    45    19    49 1   
    46    19    50 1   
    47    20    28 1   
    48    20    51 1   
    49    20    52 1   
    50    21    53 1   
    51    21    54 1   
    52    23    24 ar  
    53    23    55 1   
    54    24    56 1   
    55    26    32 ar  
    56    26    57 1   
    57    29    37 1   
    58    30    36 2   
    59    30    58 1   
    60    36    37 1   
    61    37    63 1   
    62    38    59 1   
    63    38    60 1   
    64    38    61 1   
    65    46    63 1   
    66    47    63 1   
    67    48    63 1   
@<TRIPOS>SUBSTRUCTURE
     1 836         1 TEMP              0 ****  ****    0 ROOT
