@<TRIPOS>MOLECULE
molecule
   46    49     1     0     0
SMALL
bcc


@<TRIPOS>ATOM
      1 C10          0.0000     0.0000     0.0000 ca         1 837      -0.132000
      2 C13          3.1280     0.8660    -1.5430 cc         1 837      -0.092100
      3 C15          2.6690    -0.7190    -3.4070 cc         1 837      -0.198700
      4 C20          2.5050    -1.5880    -4.5820 c          1 837       0.623900
      5 C24         -0.3340    -6.0890    -3.0810 c3         1 837       0.117400
      6 C26         -1.6790    -4.6750    -1.6840 c3         1 837       0.117400
      7 C01          0.0940    -0.0110     7.2680 c3         1 837      -0.096100
      8 C02         -0.8390    -0.0050     6.0550 c3         1 837       0.147400
      9 C04         -0.7230    -0.0020     3.6700 c          1 837       0.649700
     10 O05         -1.9370     0.0030     3.6710 o          1 837      -0.551000
     11 C06          0.0150    -0.0030     2.3930 ca         1 837      -0.134600
     12 C07          1.4140    -0.0090     2.3920 ca         1 837      -0.072000
     13 C08          2.0950     0.0000     1.2090 ca         1 837      -0.132000
     14 C09          1.3970     0.0000     0.0000 ca         1 837       0.011000
     15 C11         -0.6840     0.0020     1.1820 ca         1 837      -0.072000
     16 C12          2.1360    -0.0020    -1.2830 cd         1 837      -0.081000
     17 S14          3.7770     0.6090    -3.0970 ss         1 837       0.039200
     18 C16          1.8520    -0.9110    -2.3160 cd         1 837       0.143100
     19 O17          0.9170    -1.8990    -2.3530 os         1 837      -0.224200
     20 C18          0.7490    -2.7000    -3.4090 cd         1 837       0.402100
     21 C19          1.5090    -2.5850    -4.5320 cc         1 837      -0.423200
     22 N22         -0.2220    -3.6700    -3.3590 nh         1 837      -0.726400
     23 C23         -0.0500    -4.9500    -4.0670 c3         1 837       0.204300
     24 O25         -1.6040    -5.8720    -2.4630 os         1 837      -0.415600
     25 C27         -1.4630    -3.4630    -2.5970 c3         1 837       0.204300
     26 H1          -0.5410     0.0020    -0.9380 ha         1 837       0.141500
     27 H2           3.4700     1.6290    -0.8540 h4         1 837       0.186000
     28 H3          -0.3490    -7.0320    -3.6150 h1         1 837       0.059450
     29 H4           0.4380    -6.1090    -2.3220 h1         1 837       0.059450
     30 H5          -0.9100    -4.6930    -0.9210 h1         1 837       0.059450
     31 H6          -2.6550    -4.6070    -1.2190 h1         1 837       0.059450
     32 H7           0.7150    -0.8980     7.2420 hc         1 837       0.048033
     33 H8          -0.4960    -0.0100     8.1770 hc         1 837       0.048033
     34 H9           0.7220     0.8710     7.2450 hc         1 837       0.048033
     35 H10         -1.4600     0.8820     6.0820 h1         1 837       0.049700
     36 H11         -1.4670    -0.8870     6.0790 h1         1 837       0.049700
     37 H12          1.9570    -0.0090     3.3300 ha         1 837       0.153500
     38 H13          3.1790    -0.0020     1.2080 ha         1 837       0.141500
     39 H14         -1.7670     0.0020     1.1810 ha         1 837       0.153500
     40 H15          1.3510    -3.2480    -5.3740 ha         1 837       0.171000
     41 H16          0.9670    -5.0300    -4.4320 h1         1 837       0.065950
     42 H17         -0.7470    -5.0040    -4.8950 h1         1 837       0.065950
     43 H18         -1.3760    -2.5660    -1.9960 h1         1 837       0.065950
     44 H19         -2.2980    -3.3700    -3.2810 h1         1 837       0.065950
     45 O21          3.2090    -1.4500    -5.5710 o          1 837      -0.569100
     46 O03         -0.0480    -0.0060     4.8370 os         1 837      -0.431900
@<TRIPOS>BOND
     1     7     8 1   
     2    13    12 ar  
     3    13    14 ar  
     4    12    11 ar  
     5     2    17 1   
     6     2    16 2   
     7    46     8 1   
     8    46     9 1   
     9    17     3 1   
    10    16    14 1   
    11    16    18 1   
    12    14     1 ar  
    13    11     9 1   
    14    11    15 ar  
    15     9    10 2   
    16     3    18 2   
    17     3     4 1   
    18    18    19 1   
    19    45     4 2   
    20     1    15 ar  
    21     4    21 1   
    22    19    20 1   
    23    21    20 2   
    24    20    22 1   
    25    22    25 1   
    26    22    23 1   
    27    25     6 1   
    28    23     5 1   
    29     6    24 1   
    30     5    24 1   
    31     1    26 1   
    32     2    27 1   
    33     5    28 1   
    34     5    29 1   
    35     6    30 1   
    36     6    31 1   
    37     7    32 1   
    38     7    33 1   
    39     7    34 1   
    40     8    35 1   
    41     8    36 1   
    42    12    37 1   
    43    13    38 1   
    44    15    39 1   
    45    21    40 1   
    46    23    41 1   
    47    23    42 1   
    48    25    43 1   
    49    25    44 1   
@<TRIPOS>SUBSTRUCTURE
     1 837         1 TEMP              0 ****  ****    0 ROOT
