@<TRIPOS>MOLECULE
837
   46    49     1     0     0
SMALL
bcc


@<TRIPOS>ATOM
      1 C10          0.0000     0.0000     0.0000 ca         1 837      -0.110500
      2 C13          3.1280     0.8660    -1.5430 cc         1 837       0.005900
      3 C15          2.6690    -0.7190    -3.4070 cc         1 837      -0.141700
      4 C20          2.5050    -1.5880    -4.5820 c          1 837       0.688900
      5 C24         -0.3340    -6.0890    -3.0810 c3         1 837       0.195900
      6 C26         -1.6790    -4.6750    -1.6840 c3         1 837       0.195900
      7 C01          0.0940    -0.0110     7.2680 c3         1 837      -0.004100
      8 C02         -0.8390    -0.0050     6.0550 c3         1 837       0.227400
      9 C04         -0.7230    -0.0020     3.6700 c          1 837       0.720700
     10 O05         -1.9370     0.0030     3.6710 o          1 837      -0.589000
     11 C06          0.0150    -0.0030     2.3930 ca         1 837      -0.150600
     12 C07          1.4140    -0.0090     2.3920 ca         1 837      -0.042000
     13 C08          2.0950     0.0000     1.2090 ca         1 837      -0.110500
     14 C09          1.3970     0.0000     0.0000 ca         1 837       0.011000
     15 C11         -0.6840     0.0020     1.1820 ca         1 837      -0.042000
     16 C12          2.1360    -0.0020    -1.2830 cd         1 837      -0.080000
     17 S14          3.7770     0.6090    -3.0970 ss         1 837      -0.130800
     18 C16          1.8520    -0.9110    -2.3160 cd         1 837       0.142100
     19 O17          0.9170    -1.8990    -2.3530 os         1 837      -0.180200
     20 C18          0.7490    -2.7000    -3.4090 cc         1 837       0.274100
     21 C19          1.5090    -2.5850    -4.5320 cd         1 837      -0.432200
     22 N22         -0.2220    -3.6700    -3.3590 nh         1 837      -0.372400
     23 C23         -0.0500    -4.9500    -4.0670 c3         1 837       0.138800
     24 O25         -1.6040    -5.8720    -2.4630 os         1 837      -0.400600
     25 C27         -1.4630    -3.4630    -2.5970 c3         1 837       0.138800
     26 H1          -0.5410     0.0020    -0.9380 ha         1 837       0.114000
     27 H2           3.4700     1.6290    -0.8540 h4         1 837       0.160000
     28 H3          -0.3490    -7.0320    -3.6150 h1         1 837       0.018200
     29 H4           0.4380    -6.1090    -2.3220 h1         1 837       0.018200
     30 H5          -0.9100    -4.6930    -0.9210 h1         1 837       0.018200
     31 H6          -2.6550    -4.6070    -1.2190 h1         1 837       0.018200
     32 H7           0.7150    -0.8980     7.2420 hc         1 837       0.010700
     33 H8          -0.4960    -0.0100     8.1770 hc         1 837       0.010700
     34 H9           0.7220     0.8710     7.2450 hc         1 837       0.010700
     35 H10         -1.4600     0.8820     6.0820 h1         1 837       0.009700
     36 H11         -1.4670    -0.8870     6.0790 h1         1 837       0.009700
     37 H12          1.9570    -0.0090     3.3300 ha         1 837       0.122500
     38 H13          3.1790    -0.0020     1.2080 ha         1 837       0.114000
     39 H14         -1.7670     0.0020     1.1810 ha         1 837       0.122500
     40 H15          1.3510    -3.2480    -5.3740 ha         1 837       0.156000
     41 H16          0.9670    -5.0300    -4.4320 h1         1 837       0.036450
     42 H17         -0.7470    -5.0040    -4.8950 h1         1 837       0.036450
     43 H18         -1.3760    -2.5660    -1.9960 h1         1 837       0.036450
     44 H19         -2.2980    -3.3700    -3.2810 h1         1 837       0.036450
     45 O21          3.2090    -1.4500    -5.5710 o          1 837      -0.596100
     46 O03         -0.0480    -0.0060     4.8370 os         1 837      -0.415900
@<TRIPOS>BOND
     1     1    14 ar  
     2     1    15 ar  
     3     1    26 1   
     4     2    16 2   
     5     2    17 1   
     6     2    27 1   
     7     3     4 1   
     8     3    17 1   
     9     3    18 2   
    10     4    21 1   
    11     4    45 2   
    12     5    23 1   
    13     5    24 1   
    14     5    28 1   
    15     5    29 1   
    16     6    24 1   
    17     6    25 1   
    18     6    30 1   
    19     6    31 1   
    20     7     8 1   
    21     7    32 1   
    22     7    33 1   
    23     7    34 1   
    24     8    35 1   
    25     8    36 1   
    26     8    46 1   
    27     9    10 2   
    28     9    11 1   
    29     9    46 1   
    30    11    12 ar  
    31    11    15 ar  
    32    12    13 ar  
    33    12    37 1   
    34    13    14 ar  
    35    13    38 1   
    36    14    16 1   
    37    15    39 1   
    38    16    18 1   
    39    18    19 1   
    40    19    20 1   
    41    20    21 2   
    42    20    22 1   
    43    21    40 1   
    44    22    23 1   
    45    22    25 1   
    46    23    41 1   
    47    23    42 1   
    48    25    43 1   
    49    25    44 1   
@<TRIPOS>SUBSTRUCTURE
     1 837         1 TEMP              0 ****  ****    0 ROOT
