@<TRIPOS>MOLECULE
molecule
   45    49     1     0     0
SMALL
bcc


@<TRIPOS>ATOM
      1 O5           0.0000     0.0000     0.0000 o          1 839      -0.842300
      2 C23          1.2230     0.0000     0.0000 c          1 839       0.893600
      3 O4           1.9620     0.0000     1.1410 o          1 839      -0.842300
      4 C21          2.1050    -0.0370    -1.2290 c3         1 839      -0.196400
      5 C22          1.3210    -0.0750    -2.5420 c3         1 839       0.028300
      6 N2           2.1660    -0.1700    -3.7170 na         1 839      -0.044300
      7 C14          2.6630     0.9080    -4.4060 ca         1 839       0.016800
      8 C16          2.5730    -1.3500    -4.2880 ca         1 839       0.010800
      9 C18          2.2960    -2.6670    -3.9020 ca         1 839      -0.137000
     10 C20          2.8420    -3.6990    -4.6660 ca         1 839      -0.117000
     11 C19          3.6380    -3.4190    -5.7720 ca         1 839       0.046100
     12 O3           4.1630    -4.4420    -6.5030 oh         1 839      -0.522100
     13 C17          3.9070    -2.0960    -6.1440 ca         1 839      -0.084000
     14 C15          3.3680    -1.0280    -5.3910 cp         1 839      -0.095000
     15 C13          3.4270     0.4030    -5.4710 cp         1 839      -0.028000
     16 C4           4.0210     1.3660    -6.2960 ca         1 839      -0.104600
     17 C5           4.8700     1.2320    -7.4780 c          1 839       0.735100
     18 O1           5.2320     0.1880    -7.9860 o          1 839      -0.585500
     19 C3           3.8520     2.7280    -6.0540 ca         1 839      -0.190600
     20 C6           4.5870     3.4690    -7.0760 c          1 839       0.734100
     21 O2           4.6590     4.6810    -7.1690 o          1 839      -0.579500
     22 N1           5.1600     2.5150    -7.8780 ns         1 839      -0.612500
     23 C2           3.1010     3.2130    -5.0070 cp         1 839       0.035000
     24 C1           2.4880     2.2870    -4.1570 ca         1 839      -0.118000
     25 C7           2.9250     4.6270    -4.7570 cp         1 839      -0.036000
     26 C12          3.8220     5.3070    -3.9330 ca         1 839      -0.098000
     27 C11          3.6520     6.6710    -3.6930 ca         1 839      -0.131500
     28 C10          2.5860     7.3550    -4.2770 ca         1 839      -0.126000
     29 C9           1.6900     6.6750    -5.1020 ca         1 839      -0.131500
     30 C8           1.8590     5.3120    -5.3410 ca         1 839      -0.098000
     31 H211         2.7350    -0.9170    -1.1770 hc         1 839       0.046200
     32 H212         2.7370     0.8430    -1.2290 hc         1 839       0.046200
     33 H221         0.7260     0.8280    -2.6160 h1         1 839       0.063700
     34 H222         0.6560    -0.9290    -2.5230 h1         1 839       0.063700
     35 H18          1.6750    -2.8790    -3.0400 ha         1 839       0.158000
     36 H20          2.6460    -4.7290    -4.3940 ha         1 839       0.137000
     37 HO3          3.5830    -4.6470    -7.2180 ho         1 839       0.406000
     38 H17          4.5280    -1.8910    -7.0080 ha         1 839       0.159000
     39 HN1          5.7300     2.7310    -8.6720 hn         1 839       0.332500
     40 H1           1.7480     2.6180    -3.4390 ha         1 839       0.164000
     41 H12          4.6500     4.7760    -3.4790 ha         1 839       0.134500
     42 H11          4.3490     7.1990    -3.0530 ha         1 839       0.125500
     43 H10          2.4550     8.4140    -4.0910 ha         1 839       0.122000
     44 H9           0.8620     7.2060    -5.5560 ha         1 839       0.125500
     45 H8           1.1630     4.7840    -5.9820 ha         1 839       0.134500
@<TRIPOS>BOND
     1     1     2 1   
     2     2     3 1   
     3     2     4 1   
     4     4     5 1   
     5     4    31 1   
     6     4    32 1   
     7     5     6 1   
     8     5    33 1   
     9     5    34 1   
    10     6     8 1   
    11     6     7 1   
    12     7    15 ar  
    13     7    24 ar  
    14     8     9 ar  
    15     8    14 ar  
    16     9    10 ar  
    17     9    35 1   
    18    10    11 ar  
    19    10    36 1   
    20    11    12 1   
    21    11    13 ar  
    22    12    37 1   
    23    13    14 ar  
    24    13    38 1   
    25    14    15 1   
    26    15    16 ar  
    27    16    17 1   
    28    16    19 ar  
    29    17    18 2   
    30    17    22 1   
    31    19    23 ar  
    32    19    20 1   
    33    20    22 1   
    34    20    21 2   
    35    22    39 1   
    36    23    24 ar  
    37    23    25 1   
    38    24    40 1   
    39    25    26 ar  
    40    25    30 ar  
    41    26    27 ar  
    42    26    41 1   
    43    27    28 ar  
    44    27    42 1   
    45    28    29 ar  
    46    28    43 1   
    47    29    30 ar  
    48    29    44 1   
    49    30    45 1   
@<TRIPOS>SUBSTRUCTURE
     1 839         1 TEMP              0 ****  ****    0 ROOT
