@<TRIPOS>MOLECULE
molecule
   53    55     1     0     0
SMALL
bcc


@<TRIPOS>ATOM
      1 C1           0.0000     0.0000     0.0000 cc         1 83A      -0.249600
      2 N1           2.0520     0.0000     1.1920 ns         1 83A      -0.472400
      3 O1           2.0380    -0.0030    -1.0450 o          1 83A      -0.605500
      4 C2           1.4130     0.0000     0.0000 c          1 83A       0.747100
      5 N2           0.0240    -0.0030     2.3660 nd         1 83A      -0.610100
      6 O2          -8.6370     6.3400    -4.3030 o          1 83A      -0.624100
      7 C3           1.3380     0.0020     2.3530 cc         1 83A       0.340800
      8 N3           2.0130     0.0030     3.5470 nz         1 83A      -0.695600
      9 O3          -6.4940     8.2110    -6.0260 o          1 83A      -0.789300
     10 C4          -0.6820     0.0020     1.2250 cd         1 83A       0.168100
     11 N4          -2.0170     0.0060     0.9460 na         1 83A      -0.146100
     12 O4          -7.6080    10.1190    -6.0260 o          1 83A      -0.789300
     13 C5          -2.2140     0.0090    -0.4130 cd         1 83A      -0.057600
     14 N5          -5.2550     1.4600    -2.1010 nu         1 83A      -0.841600
     15 O5          -7.1090    10.8840     0.4960 o          1 83A      -0.811800
     16 C6          -1.0260     0.0060    -1.0410 cc         1 83A      -0.112000
     17 N6          -6.9010     7.4950    -3.5370 ns         1 83A      -0.528900
     18 O6          -6.1660    11.7030    -1.3270 o          1 83A      -0.811800
     19 C7          -3.5570     0.0150    -1.0950 c3         1 83A      -0.035100
     20 C8          -3.9490     1.4540    -1.4370 c3         1 83A       0.245800
     21 C9          -5.8210     2.6630    -2.5090 ca         1 83A       0.189600
     22 C10         -7.0620     2.6680    -3.1390 ca         1 83A      -0.220500
     23 C11         -7.6260     3.8560    -3.5430 ca         1 83A      -0.044000
     24 C12         -6.9520     5.0600    -3.3210 ca         1 83A      -0.158600
     25 C13         -5.7060     5.0520    -2.6870 ca         1 83A      -0.044000
     26 C14         -5.1490     3.8610    -2.2800 ca         1 83A      -0.220500
     27 C15         -7.5540     6.3350    -3.7520 c          1 83A       0.671700
     28 C16         -7.4990     8.7620    -3.9660 c3         1 83A       0.019700
     29 C17         -7.1630     9.0090    -5.4150 c          1 83A       0.887600
     30 C18         -6.9440     9.9030    -3.1110 c3         1 83A      -0.064400
     31 C19         -7.3900     9.7170    -1.6600 c3         1 83A      -0.172400
     32 C20         -6.8430    10.8410    -0.8180 c          1 83A       0.888600
     33 H1           3.0520     0.0030     1.2220 hn         1 83A       0.323500
     34 H2           1.3560     0.0020     4.3020 hn         1 83A       0.449133
     35 H3           2.5900    -0.8120     3.6060 hn         1 83A       0.449133
     36 H4          -2.7460     0.0080     1.6310 hn         1 83A       0.311700
     37 H6          -5.7500     0.6020    -2.2390 hn         1 83A       0.429800
     38 H8          -0.8610     0.0070    -2.1110 ha         1 83A       0.183000
     39 H9          -5.9900     7.4870    -3.1230 hn         1 83A       0.305500
     40 H10         -3.5030    -0.5700    -2.0050 hc         1 83A       0.065200
     41 H11         -4.3000    -0.4130    -0.4340 hc         1 83A       0.065200
     42 H12         -3.2050     1.8830    -2.0990 h1         1 83A       0.046200
     43 H13         -4.0030     2.0400    -0.5270 h1         1 83A       0.046200
     44 H14         -7.5850     1.7350    -3.3110 ha         1 83A       0.117500
     45 H15         -8.5920     3.8580    -4.0340 ha         1 83A       0.150500
     46 H16         -5.1810     5.9840    -2.5110 ha         1 83A       0.150500
     47 H17         -4.1830     3.8540    -1.7890 ha         1 83A       0.117500
     48 H18         -8.5740     8.7120    -3.8480 h1         1 83A       0.082700
     49 H19         -7.3170    10.8490    -3.4860 hc         1 83A       0.067700
     50 H20         -5.8620     9.8970    -3.1600 hc         1 83A       0.067700
     51 H21         -8.4720     9.7230    -1.6110 hc         1 83A       0.033700
     52 H22         -7.0170     8.7710    -1.2860 hc         1 83A       0.033700
     53 H33          2.5830     0.8240     3.6070 hn         1 83A       0.449133
@<TRIPOS>BOND
     1     8     7 1   
     2     2     7 1   
     3     2     4 1   
     4     7     5 2   
     5     3     4 2   
     6     4     1 1   
     7     5    10 1   
     8     1    10 2   
     9     1    16 1   
    10    10    11 1   
    11    16    13 2   
    12    11    13 1   
    13    13    19 1   
    14    19    20 1   
    15    20    14 1   
    16    18    32 1   
    17    14    21 1   
    18    32    15 1   
    19    32    31 1   
    20    21    22 ar  
    21    21    26 ar  
    22    22    23 ar  
    23    31    30 1   
    24    26    25 ar  
    25    23    24 ar  
    26    25    24 ar  
    27    30    28 1   
    28    24    27 1   
    29    17    27 1   
    30    17    28 1   
    31    27     6 2   
    32    28    29 1   
    33    29     9 1   
    34    29    12 1   
    35     2    33 1   
    36     8    34 1   
    37     8    35 1   
    38    11    36 1   
    39    14    37 1   
    40    16    38 1   
    41    17    39 1   
    42    19    40 1   
    43    19    41 1   
    44    20    42 1   
    45    20    43 1   
    46    22    44 1   
    47    23    45 1   
    48    25    46 1   
    49    26    47 1   
    50    28    48 1   
    51    30    49 1   
    52    30    50 1   
    53    31    51 1   
    54    31    52 1   
    55    53     8 1   
@<TRIPOS>SUBSTRUCTURE
     1 83A         1 TEMP              0 ****  ****    0 ROOT
