@<TRIPOS>MOLECULE
molecule
   29    30     1     0     0
SMALL
bcc


@<TRIPOS>ATOM
      1 C13          0.0000     0.0000     0.0000 ca         1 83D      -0.182000
      2 C6           1.4770    -0.2650     7.3290 ca         1 83D      -0.093000
      3 C1          -0.0150     0.0070     2.4020 ca         1 83D      -0.157000
      4 C5           2.1610    -0.0560     6.1280 ca         1 83D      -0.092800
      5 C8           3.4830     0.2230     8.5470 ca         1 83D       0.118100
      6 C3           2.1160     0.0010     3.6850 ce         1 83D      -0.153200
      7 C9           4.1710     0.4190     7.3560 ca         1 83D      -0.152500
      8 C10          3.5150     0.2870     6.1510 ca         1 83D      -0.093000
      9 C11          2.0820     0.0000     1.1990 ca         1 83D      -0.157000
     10 C12          1.3880     0.0000     0.0000 ca         1 83D       0.117100
     11 F            0.1460    -0.5320     4.8210 f          1 83D      -0.157500
     12 C4           1.4560    -0.2000     4.8410 cf         1 83D       0.172300
     13 O1           4.1330     0.3550     9.7330 oh         1 83D      -0.521100
     14 C7           2.1390    -0.1250     8.5290 ca         1 83D      -0.152500
     15 C2           1.3830     0.0010     2.4090 ca         1 83D      -0.034800
     16 O2           2.0670    -0.0010    -1.1770 oh         1 83D      -0.520600
     17 C           -0.7000     0.0070     1.1980 ca         1 83D       0.117100
     18 O           -2.0580     0.0120     1.1910 oh         1 83D      -0.520600
     19 H1          -0.5390    -0.0000    -0.9390 ha         1 83D       0.148000
     20 H3          -0.5620     0.0120     3.3370 ha         1 83D       0.160000
     21 H4           3.1660     0.2690     3.7030 ha         1 83D       0.152000
     22 H5           5.2210     0.6850     7.3750 ha         1 83D       0.145500
     23 H6           4.0500     0.4450     5.2220 ha         1 83D       0.143000
     24 H7           3.1650    -0.0020     1.1980 ha         1 83D       0.160000
     25 H8           4.0660     1.2470    10.0310 ho         1 83D       0.423000
     26 H9           1.6080    -0.2810     9.4610 ha         1 83D       0.145500
     27 H10          2.2240    -0.8900    -1.4490 ho         1 83D       0.421500
     28 H11         -2.3680     0.8950     1.0700 ho         1 83D       0.421500
     29 H2           0.4280    -0.5340     7.3160 ha         1 83D       0.143000
@<TRIPOS>BOND
     1    13     5 1   
     2    14     5 ar  
     3    14     2 ar  
     4     5     7 ar  
     5     2     4 ar  
     6     7     8 ar  
     7     4     8 ar  
     8     4    12 1   
     9     6    12 2   
    10     6    15 1   
    11    12    11 1   
    12    15     3 ar  
    13    15     9 ar  
    14     3    17 ar  
    15     9    10 ar  
    16    17    18 1   
    17    17     1 ar  
    18    10     1 ar  
    19    10    16 1   
    20     1    19 1   
    21     2    29 1   
    22     3    20 1   
    23     6    21 1   
    24     7    22 1   
    25     8    23 1   
    26     9    24 1   
    27    13    25 1   
    28    14    26 1   
    29    16    27 1   
    30    18    28 1   
@<TRIPOS>SUBSTRUCTURE
     1 83D         1 TEMP              0 ****  ****    0 ROOT
