@<TRIPOS>MOLECULE
molecule
   52    55     1     0     0
SMALL
bcc


@<TRIPOS>ATOM
      1 C14          0.0000     0.0000     0.0000 c          1 83G       0.584100
      2 C11          2.2220     0.5350    -1.1480 cc         1 83G      -0.239400
      3 C10          1.6810     1.0740    -2.3000 cd         1 83G      -0.015100
      4 C12          1.4910     0.0000     0.0000 c          1 83G       0.547300
      5 C01          5.7710    -0.6920     1.4250 c3         1 83G       0.123700
      6 C03          4.7770     0.2290    -0.5260 ca         1 83G       0.220100
      7 C04          6.0530     0.4580    -1.0270 ca         1 83G      -0.378300
      8 C05          6.1940     1.0410    -2.2730 ca         1 83G       0.481200
      9 C07          3.9060     1.1930    -2.5690 ca         1 83G       0.478800
     10 C08          3.6860     0.6050    -1.3150 ca         1 83G      -0.202100
     11 C17          0.0430    -0.8620     2.2920 c3         1 83G       0.021000
     12 C18         -0.3300     0.0000     3.5040 c3         1 83G       0.094000
     13 C20         -2.5100     0.6290     2.3840 c3         1 83G       0.071000
     14 C21         -2.1370    -0.2320     1.1720 c3         1 83G       0.096700
     15 C22         -2.6490     0.4310    -0.1080 c3         1 83G      -0.088100
     16 C23         -2.4670    -0.2320     4.6750 c          1 83G       0.676700
     17 C25         -3.9450    -0.1950     4.6880 ca         1 83G      -0.140600
     18 C26         -4.6680    -1.2670     5.2140 ca         1 83G      -0.095500
     19 C27         -6.0470    -1.2260     5.2220 ca         1 83G      -0.136000
     20 C28         -6.7140    -0.1260     4.7110 ca         1 83G      -0.110000
     21 C29         -6.0020     0.9390     4.1860 ca         1 83G      -0.136000
     22 C30         -4.6230     0.9140     4.1780 ca         1 83G      -0.095500
     23 N06          5.1490     1.3870    -2.9960 nb         1 83G      -0.738000
     24 N09          2.6740     1.4570    -3.1260 na         1 83G      -0.256100
     25 N16         -0.6730    -0.3520     1.1140 n          1 83G      -0.456800
     26 N19         -1.7940     0.1200     3.5620 n          1 83G      -0.489800
     27 O02          4.5960    -0.3420     0.6920 os         1 83G      -0.287900
     28 O13          2.1000    -0.4460     0.9530 o          1 83G      -0.504100
     29 O15         -0.6070     0.3220    -1.0000 o          1 83G      -0.622100
     30 O24         -1.8600    -0.5800     5.6680 o          1 83G      -0.602100
     31 H1           0.6230     1.1720    -2.5070 h4         1 83G       0.212000
     32 H2           6.3550    -1.4030     0.8530 h1         1 83G       0.043700
     33 H3           5.4870    -1.1370     2.3710 h1         1 83G       0.043700
     34 H4           6.3620     0.1970     1.6070 h1         1 83G       0.043700
     35 H5           6.9270     0.1810    -0.4490 ha         1 83G       0.146000
     36 H6           7.1890     1.2190    -2.6630 h4         1 83G       0.026100
     37 H7           1.1110    -0.8030     2.1200 h1         1 83G       0.099700
     38 H8          -0.2460    -1.8890     2.4750 h1         1 83G       0.099700
     39 H9           0.1110     0.9840     3.3990 h1         1 83G       0.070200
     40 H10          0.0310    -0.4720     4.4090 h1         1 83G       0.070200
     41 H11         -3.5780     0.5710     2.5550 h1         1 83G       0.067200
     42 H12         -2.2210     1.6570     2.2000 h1         1 83G       0.067200
     43 H13         -2.5760    -1.2170     1.2780 h1         1 83G       0.061700
     44 H14         -2.1520     1.3840    -0.2450 hc         1 83G       0.050367
     45 H15         -3.7180     0.5890    -0.0300 hc         1 83G       0.050367
     46 H16         -2.4400    -0.2100    -0.9560 hc         1 83G       0.050367
     47 H17         -4.1480    -2.1280     5.6150 ha         1 83G       0.143500
     48 H18         -6.6100    -2.0560     5.6310 ha         1 83G       0.134500
     49 H19         -7.7970    -0.1000     4.7170 ha         1 83G       0.132000
     50 H20         -6.5300     1.7980     3.7890 ha         1 83G       0.134500
     51 H21         -4.0680     1.7480     3.7670 ha         1 83G       0.143500
     52 H22          2.5350     1.8760    -4.0240 hn         1 83G       0.311700
@<TRIPOS>BOND
     1     5    27 1
     2    20    19 ar
     3    20    21 ar
     4    19    18 ar
     5    21    22 ar
     6     7     8 ar
     7     7     6 ar
     8    27     6 1
     9    18    17 ar
    10     8    23 ar
    11     6    10 ar
    12    22    17 ar
    13    29     1 2
    14    12    11 1
    15    12    26 1
    16    17    16 1
    17    11    25 1
    18    23     9 ar
    19    10     9 ar
    20    10     2 1
    21     1    25 1
    22     1     4 1
    23    25    14 1
    24    26    16 1
    25    26    13 1
    26    16    30 2
    27     9    24 1
    28     2     4 1
    29     2     3 2
    30     4    28 2
    31    13    14 1
    32    14    15 1
    33    24     3 1
    34     3    31 1
    35     5    32 1
    36     5    33 1
    37     5    34 1
    38     7    35 1
    39     8    36 1
    40    11    37 1
    41    11    38 1
    42    12    39 1
    43    12    40 1
    44    13    41 1
    45    13    42 1
    46    14    43 1
    47    15    44 1
    48    15    45 1
    49    15    46 1
    50    18    47 1
    51    19    48 1
    52    20    49 1
    53    21    50 1
    54    22    51 1
    55    24    52 1
@<TRIPOS>SUBSTRUCTURE
     1 83G         1 TEMP              0 ****  ****    0 ROOT
