@<TRIPOS>MOLECULE
83G
   52    55     1     0     0
SMALL
bcc


@<TRIPOS>ATOM
      1 C14          0.0000     0.0000     0.0000 c          1 83G       0.510100
      2 C11          2.2220     0.5350    -1.1480 cc         1 83G      -0.245400
      3 C10          1.6810     1.0740    -2.3000 cd         1 83G      -0.202100
      4 C12          1.4910     0.0000     0.0000 c          1 83G       0.607300
      5 C01          5.7710    -0.6920     1.4250 c3         1 83G       0.235700
      6 C03          4.7770     0.2290    -0.5260 ca         1 83G       0.233100
      7 C04          6.0530     0.4580    -1.0270 ca         1 83G      -0.365300
      8 C05          6.1940     1.0410    -2.2730 ca         1 83G       0.458200
      9 C07          3.9060     1.1930    -2.5690 ca         1 83G       0.235800
     10 C08          3.6860     0.6050    -1.3150 ca         1 83G      -0.194100
     11 C17          0.0430    -0.8620     2.2920 c3         1 83G      -0.083000
     12 C18         -0.3300     0.0000     3.5040 c3         1 83G       0.045000
     13 C20         -2.5100     0.6290     2.3840 c3         1 83G      -0.011000
     14 C21         -2.1370    -0.2320     1.1720 c3         1 83G       0.017700
     15 C22         -2.6490     0.4310    -0.1080 c3         1 83G      -0.020100
     16 C23         -2.4670    -0.2320     4.6750 c          1 83G       0.614700
     17 C25         -3.9450    -0.1950     4.6880 ca         1 83G      -0.147600
     18 C26         -4.6680    -1.2670     5.2140 ca         1 83G      -0.070000
     19 C27         -6.0470    -1.2260     5.2220 ca         1 83G      -0.107000
     20 C28         -6.7140    -0.1260     4.7110 ca         1 83G      -0.082000
     21 C29         -6.0020     0.9390     4.1860 ca         1 83G      -0.107000
     22 C30         -4.6230     0.9140     4.1780 ca         1 83G      -0.070000
     23 N06          5.1490     1.3870    -2.9960 nb         1 83G      -0.611000
     24 N09          2.6740     1.4570    -3.1260 na         1 83G       0.301900
     25 N16         -0.6730    -0.3520     1.1140 n          1 83G      -0.101800
     26 N19         -1.7940     0.1200     3.5620 n          1 83G      -0.153800
     27 O02          4.5960    -0.3420     0.6920 os         1 83G      -0.265900
     28 O13          2.1000    -0.4460     0.9530 o          1 83G      -0.545100
     29 O15         -0.6070     0.3220    -1.0000 o          1 83G      -0.658100
     30 O24         -1.8600    -0.5800     5.6680 o          1 83G      -0.641100
     31 H1           0.6230     1.1720    -2.5070 h4         1 83G       0.183000
     32 H2           6.3550    -1.4030     0.8530 h1         1 83G      -0.000967
     33 H3           5.4870    -1.1370     2.3710 h1         1 83G      -0.000967
     34 H4           6.3620     0.1970     1.6070 h1         1 83G      -0.000967
     35 H5           6.9270     0.1810    -0.4490 ha         1 83G       0.132000
     36 H6           7.1890     1.2190    -2.6630 h4         1 83G      -0.022900
     37 H7           1.1110    -0.8030     2.1200 h1         1 83G       0.084200
     38 H8          -0.2460    -1.8890     2.4750 h1         1 83G       0.084200
     39 H9           0.1110     0.9840     3.3990 h1         1 83G       0.041700
     40 H10          0.0310    -0.4720     4.4090 h1         1 83G       0.041700
     41 H11         -3.5780     0.5710     2.5550 h1         1 83G       0.049200
     42 H12         -2.2210     1.6570     2.2000 h1         1 83G       0.049200
     43 H13         -2.5760    -1.2170     1.2780 h1         1 83G       0.032700
     44 H14         -2.1520     1.3840    -0.2450 hc         1 83G       0.026367
     45 H15         -3.7180     0.5890    -0.0300 hc         1 83G       0.026367
     46 H16         -2.4400    -0.2100    -0.9560 hc         1 83G       0.026367
     47 H17         -4.1480    -2.1280     5.6150 ha         1 83G       0.117000
     48 H18         -6.6100    -2.0560     5.6310 ha         1 83G       0.106500
     49 H19         -7.7970    -0.1000     4.7170 ha         1 83G       0.103000
     50 H20         -6.5300     1.7980     3.7890 ha         1 83G       0.106500
     51 H21         -4.0680     1.7480     3.7670 ha         1 83G       0.117000
     52 H22          2.5350     1.8760    -4.0240 hn         1 83G       0.119700
@<TRIPOS>BOND
     1     1     4 1   
     2     1    25 1   
     3     1    29 2   
     4     2     3 2   
     5     2     4 1   
     6     2    10 1   
     7     3    24 1   
     8     3    31 1   
     9     4    28 2   
    10     5    27 1   
    11     5    32 1   
    12     5    33 1   
    13     5    34 1   
    14     6     7 ar  
    15     6    10 ar  
    16     6    27 1   
    17     7     8 ar  
    18     7    35 1   
    19     8    23 ar  
    20     8    36 1   
    21     9    10 ar  
    22     9    23 ar  
    23     9    24 1   
    24    11    12 1   
    25    11    25 1   
    26    11    37 1   
    27    11    38 1   
    28    12    26 1   
    29    12    39 1   
    30    12    40 1   
    31    13    14 1   
    32    13    26 1   
    33    13    41 1   
    34    13    42 1   
    35    14    15 1   
    36    14    25 1   
    37    14    43 1   
    38    15    44 1   
    39    15    45 1   
    40    15    46 1   
    41    16    17 1   
    42    16    26 1   
    43    16    30 2   
    44    17    18 ar  
    45    17    22 ar  
    46    18    19 ar  
    47    18    47 1   
    48    19    20 ar  
    49    19    48 1   
    50    20    21 ar  
    51    20    49 1   
    52    21    22 ar  
    53    21    50 1   
    54    22    51 1   
    55    24    52 1   
@<TRIPOS>SUBSTRUCTURE
     1 83G         1 TEMP              0 ****  ****    0 ROOT
