@<TRIPOS>MOLECULE
molecule
   50    54     1     0     0
SMALL
bcc


@<TRIPOS>ATOM
      1 C4           0.0000     0.0000     0.0000 ca         1 83H      -0.040200
      2 C5           1.4050     0.0000     0.0000 ca         1 83H      -0.077800
      3 C6           2.1120     0.0000     1.2050 ca         1 83H      -0.110000
      4 C7           3.2440     0.0220    -1.8680 c3         1 83H      -0.009200
      5 C8           0.6930    -0.0020    -2.1560 cc         1 83H       0.021700
      6 C9           1.8200     0.0040    -1.4100 cd         1 83H      -0.106400
      7 C10          0.5680    -0.0080    -3.6260 cc         1 83H      -0.016100
      8 C11          1.5500    -0.0080    -4.5820 cd         1 83H      -0.262600
      9 C12          3.0330     0.0080    -4.3840 c3         1 83H      -0.001100
     10 C15          0.9200    -0.0230    -5.8340 cd         1 83H       0.343600
     11 C23          0.8890     0.0250     4.6190 c          1 83H       0.718500
     12 N16          1.8890     0.0120     3.7240 n          1 83H      -0.369000
     13 C27          3.3090     0.0050     4.0860 c3         1 83H       0.105000
     14 C28          3.7930    -1.4410     4.2200 c3         1 83H      -0.114100
     15 C17         -0.4100     0.0270     3.8430 c3         1 83H      -0.099700
     16 C26         -1.2290    -1.2240     4.1660 c3         1 83H      -0.066600
     17 C25         -1.2170     1.2890     4.1510 c3         1 83H      -0.066600
     18 C2           0.0260     0.0140     2.3940 ca         1 83H      -0.103300
     19 C3          -0.6790     0.0080     1.2150 ca         1 83H      -0.099000
     20 C1           1.4210     0.0090     2.4070 ca         1 83H       0.030600
     21 N7          -0.4090    -0.0010    -1.3130 na         1 83H      -0.194400
     22 C47          3.4770    -0.7230    -3.1500 c3         1 83H      -0.086400
     23 C48          1.6200    -0.0320    -7.1680 c3         1 83H      -0.111400
     24 N14         -0.3750    -0.0270    -5.6550 nc         1 83H      -0.498800
     25 N13         -0.6370    -0.0150    -4.2820 na         1 83H      -0.059600
     26 H6           3.1910    -0.0930     1.2000 ha         1 83H       0.136000
     27 H7           3.5140     1.0560    -2.0430 hc         1 83H       0.054200
     28 H7A          3.8350    -0.4640    -1.1010 hc         1 83H       0.054200
     29 H12          3.4790    -0.4920    -5.2350 hc         1 83H       0.052200
     30 H12A         3.3330     1.0430    -4.2730 hc         1 83H       0.052200
     31 H27          3.8810     0.5070     3.3140 h1         1 83H       0.061700
     32 H27A         3.4440     0.5200     5.0290 h1         1 83H       0.061700
     33 H28          4.4100    -1.5340     5.1060 hc         1 83H       0.044367
     34 H28A         2.9380    -2.1020     4.3040 hc         1 83H       0.044367
     35 H28B         4.3730    -1.7100     3.3460 hc         1 83H       0.044367
     36 H26         -0.6440    -2.1080     3.9400 hc         1 83H       0.045367
     37 H26A        -1.4900    -1.2240     5.2180 hc         1 83H       0.045367
     38 H26B        -2.1340    -1.2280     3.5700 hc         1 83H       0.045367
     39 H25         -2.0430     1.3690     3.4550 hc         1 83H       0.045367
     40 H25A        -1.6010     1.2340     5.1620 hc         1 83H       0.045367
     41 H25B        -0.5780     2.1590     4.0540 hc         1 83H       0.045367
     42 H3          -1.7610     0.0580     1.2300 ha         1 83H       0.131000
     43 HN7         -1.3630    -0.0010    -1.6160 hn         1 83H       0.290700
     44 H47          4.5460    -0.8790    -3.2380 hc         1 83H       0.050700
     45 H47A         2.9030    -1.6390    -3.0970 hc         1 83H       0.050700
     46 H48          2.1520    -0.9680    -7.2900 hc         1 83H       0.051700
     47 H48A         0.8890     0.0720    -7.9610 hc         1 83H       0.051700
     48 H48B         2.3220     0.7910    -7.2140 hc         1 83H       0.051700
     49 HN13        -1.5420    -0.0150    -3.8550 hn         1 83H       0.324700
     50 O24          1.0040     0.0350     5.8270 o          1 83H      -0.608500
@<TRIPOS>BOND
     1     1     2 ar
     2     1    19 ar
     3     1    21 1
     4     2     3 ar
     5     2     6 1
     6     3    20 ar
     7     4     6 1
     8     4    22 1
     9     5     6 2
    10     5     7 1
    11     5    21 1
    12     7     8 2
    13     7    25 1
    14     8     9 1
    15     8    10 1
    16     9    22 1
    17    10    23 1
    18    10    24 2
    19    50    11 2
    20    11    12 1
    21    11    15 1
    22    12    13 1
    23    12    20 1
    24    13    14 1
    25    15    16 1
    26    15    17 1
    27    15    18 1
    28    18    19 ar
    29    18    20 ar
    30    24    25 1
    31     3    26 1
    32     4    27 1
    33     4    28 1
    34     9    29 1
    35     9    30 1
    36    13    31 1
    37    13    32 1
    38    14    33 1
    39    14    34 1
    40    14    35 1
    41    16    36 1
    42    16    37 1
    43    16    38 1
    44    17    39 1
    45    17    40 1
    46    17    41 1
    47    19    42 1
    48    21    43 1
    49    22    44 1
    50    22    45 1
    51    23    46 1
    52    23    47 1
    53    23    48 1
    54    25    49 1
@<TRIPOS>SUBSTRUCTURE
     1 83H         1 TEMP              0 ****  ****    0 ROOT
