@<TRIPOS>MOLECULE
83J
   58    62     1     0     0
SMALL
bcc


@<TRIPOS>ATOM
      1 C10          0.0000     0.0000     0.0000 c3         1 83J       0.019000
      2 C13         -1.3200    -2.0100     0.4610 c          1 83J       0.616700
      3 C15         -1.8900    -1.9170    -0.9000 ca         1 83J      -0.153600
      4 C17          4.8660     2.0280     5.0620 ca         1 83J      -0.053800
      5 C20         -2.0990    -3.0750    -1.6520 ca         1 83J      -0.070000
      6 C21         -2.2270    -0.6740    -1.4360 ca         1 83J      -0.070000
      7 C22          4.9980     1.1530     6.1440 ca         1 83J       0.106800
      8 C24         -2.7590    -0.5950    -2.7060 ca         1 83J      -0.108500
      9 C26         -2.9590    -1.7450    -3.4490 ca         1 83J      -0.079000
     10 C01          1.5330    -1.0580     2.2980 c3         1 83J      -0.011000
     11 C04         -0.0080    -1.0600     2.2970 c3         1 83J       0.019000
     12 C07          1.5330     0.0000     0.0000 c3         1 83J      -0.011000
     13 C12          2.8490     0.9530     1.8320 c          1 83J       0.508100
     14 C14          3.4500     0.8460     3.1920 c          1 83J       0.607300
     15 C16          4.2110     1.9670     3.7450 cc         1 83J      -0.252400
     16 C18          4.4620     3.1840     3.1340 cd         1 83J      -0.196100
     17 C19          5.4660     3.2950     5.1360 ca         1 83J      -0.322500
     18 C23         -2.6320    -2.9810    -2.9210 ca         1 83J      -0.108500
     19 C25          5.7170     1.5700     7.2500 ca         1 83J       0.262200
     20 C27          4.6180    -0.9130     7.2580 c3         1 83J       0.233700
     21 C29          6.1720     3.6300     6.2930 ca         1 83J       0.288800
     22 C31          7.0760     5.5490     7.5320 cc         1 83J       0.322400
     23 C33          7.7190     6.7820     5.8760 cd         1 83J       0.591300
     24 C35          8.3040     7.9450     5.1180 c3         1 83J       0.003600
     25 N02          2.0030     0.0000     1.3930 n          1 83J      -0.110800
     26 N05         -0.4730    -1.0580     0.9030 n          1 83J      -0.157800
     27 N08          5.1960     3.9560     3.9550 na         1 83J       0.434600
     28 N28          6.2700     2.7700     7.2910 nb         1 83J      -0.527000
     29 N30          6.7790     4.8870     6.3960 na         1 83J       0.366800
     30 N32          7.6360     6.6850     7.2020 nd         1 83J      -0.699000
     31 N34          7.2030     5.7070     5.3380 nc         1 83J      -0.742800
     32 O03          3.1210     1.8970     1.1190 o          1 83J      -0.656100
     33 O06         -1.6130    -2.9430     1.1810 o          1 83J      -0.640100
     34 O09          3.3080    -0.1710     3.8420 o          1 83J      -0.544100
     35 H1          -0.3620     0.9610     0.3460 h1         1 83J       0.044450
     36 H2          -0.3620    -0.1910    -1.0030 h1         1 83J       0.044450
     37 H3          -1.8440    -4.0440    -1.2400 ha         1 83J       0.119500
     38 H4          -2.0710     0.2280    -0.8560 ha         1 83J       0.119500
     39 H5          -3.0190     0.3700    -3.1240 ha         1 83J       0.106500
     40 H6          -3.3770    -1.6780    -4.4460 ha         1 83J       0.104000
     41 H7           1.8970    -2.0180     1.9530 h1         1 83J       0.058700
     42 H8           1.8950    -0.8640     3.3010 h1         1 83J       0.058700
     43 H9          -0.3700    -1.9480     2.8000 h1         1 83J       0.044450
     44 H10         -0.3730    -0.1740     2.8030 h1         1 83J       0.044450
     45 H11          1.8960    -0.8870    -0.5050 h1         1 83J       0.058700
     46 H12          1.8960     0.8870    -0.5050 h1         1 83J       0.058700
     47 H13          4.1200     3.4700     2.1470 h4         1 83J       0.186000
     48 H14         -2.7930    -3.8780    -3.5070 ha         1 83J       0.106500
     49 H15          5.8270     0.9030     8.0960 h4         1 83J       0.004100
     50 H16          4.1160    -1.8600     7.1040 h1         1 83J       0.001367
     51 H17          4.2060    -0.4250     8.1340 h1         1 83J       0.001367
     52 H18          5.6770    -1.0850     7.4050 h1         1 83J       0.001367
     53 H19          6.8810     5.2040     8.5400 h5         1 83J       0.037100
     54 H20          8.6210     8.7090     5.8180 hc         1 83J       0.016367
     55 H21          9.1570     7.6080     4.5410 hc         1 83J       0.016367
     56 H22          7.5560     8.3550     4.4500 hc         1 83J       0.016367
     57 H23          5.5060     4.8830     3.7390 hn         1 83J       0.143700
     58 O11          4.4330    -0.0830     6.1100 os         1 83J      -0.259900
@<TRIPOS>BOND
     1     1    12 1   
     2     1    26 1   
     3     1    35 1   
     4     1    36 1   
     5     2     3 1   
     6     2    26 1   
     7     2    33 2   
     8     3     5 ar  
     9     3     6 ar  
    10     4     7 ar  
    11     4    15 1   
    12     4    17 ar  
    13     5    18 ar  
    14     5    37 1   
    15     6     8 ar  
    16     6    38 1   
    17     7    19 ar  
    18     7    58 1   
    19     8     9 ar  
    20     8    39 1   
    21     9    18 ar  
    22     9    40 1   
    23    10    11 1   
    24    10    25 1   
    25    10    41 1   
    26    10    42 1   
    27    11    26 1   
    28    11    43 1   
    29    11    44 1   
    30    12    25 1   
    31    12    45 1   
    32    12    46 1   
    33    13    14 1   
    34    13    25 1   
    35    13    32 2   
    36    14    15 1   
    37    14    34 2   
    38    15    16 2   
    39    16    27 1   
    40    16    47 1   
    41    17    21 ar  
    42    17    27 1   
    43    18    48 1   
    44    19    28 ar  
    45    19    49 1   
    46    20    50 1   
    47    20    51 1   
    48    20    52 1   
    49    20    58 1   
    50    21    28 ar  
    51    21    29 1   
    52    22    29 1   
    53    22    30 2   
    54    22    53 1   
    55    23    24 1   
    56    23    30 1   
    57    23    31 2   
    58    24    54 1   
    59    24    55 1   
    60    24    56 1   
    61    27    57 1   
    62    29    31 1   
@<TRIPOS>SUBSTRUCTURE
     1 83J         1 TEMP              0 ****  ****    0 ROOT
