@<TRIPOS>MOLECULE
molecule
  101   102     1     0     0
SMALL
bcc


@<TRIPOS>ATOM
      1 C8           0.0000     0.0000     0.0000 c3         1 83M      -0.082400
      2 C9           1.5300     0.0000     0.0000 c3         1 83M      -0.082400
      3 C16        -10.7780     1.4170     6.8140 c          1 83M       0.885600
      4 C6          -2.0400    -0.0000     1.4430 c3         1 83M      -0.082400
      5 C5          -2.5500    -0.0000     2.8850 c3         1 83M      -0.082400
      6 N23         -8.8100     0.0010     6.9380 ns         1 83M      -0.557900
      7 C1          -6.6290     0.0010     5.7710 c3         1 83M      -0.159400
      8 C2          -6.1200     0.0010     4.3280 c3         1 83M      -0.064400
      9 C3          -4.5900     0.0010     4.3280 c3         1 83M      -0.086400
     10 C4          -4.0800     0.0010     2.8850 c3         1 83M      -0.080400
     11 C7          -0.5100     0.0000     1.4430 c3         1 83M      -0.082400
     12 C13          5.6100    -0.0010    -2.8850 c3         1 83M      -0.092100
     13 C12          4.0790    -0.0010    -2.8850 c3         1 83M      -0.084400
     14 C11          3.5690    -0.0000    -1.4430 c3         1 83M      -0.082400
     15 C10          2.0390    -0.0000    -1.4430 c3         1 83M      -0.082400
     16 C14         -8.1370     0.0010     5.7710 c          1 83M       0.661100
     17 C15        -10.2760     0.0010     6.9380 c3         1 83M       0.036700
     18 C17        -11.1310    -4.5630    11.1310 c3         1 83M       0.069400
     19 C18        -10.2350    -5.7370    11.5290 c3         1 83M      -0.246100
     20 C19        -10.7860    -0.6090     8.2460 c3         1 83M      -0.074400
     21 C20        -10.3810    -2.0820     8.3140 c3         1 83M      -0.173400
     22 C21        -10.8820    -2.6830     9.6010 c          1 83M       0.595100
     23 C22        -12.5440    -5.0510    10.9410 c2         1 83M       0.604200
     24 C23         -8.8500    -5.2310    11.8390 ca         1 83M      -0.054300
     25 C24         -8.5280    -4.8470    13.1280 ca         1 83M      -0.101000
     26 C25         -7.2590    -4.3830    13.4140 ca         1 83M      -0.155000
     27 C26         -6.3080    -4.3000    12.4090 ca         1 83M       0.106100
     28 C27         -6.6340    -4.6860    11.1160 ca         1 83M      -0.155000
     29 C28         -7.9030    -5.1550    10.8360 ca         1 83M      -0.101000
     30 C29        -14.2880    -7.4970     8.7910 c          1 83M       0.663100
     31 C32        -14.8890    -4.8720    11.5100 c3         1 83M       0.133800
     32 C33        -15.1520    -5.6370    10.2110 c3         1 83M      -0.131400
     33 C34        -14.0860    -6.7420    10.0780 c3         1 83M       0.174500
     34 C35        -15.4320    -9.1900     7.4610 c3         1 83M       0.057000
     35 C36        -16.5400   -10.1960     7.6390 c          1 83M       0.429100
     36 N24        -10.6420    -3.9800     9.8790 ns         1 83M      -0.499900
     37 N30        -13.4850    -4.4870    11.6030 n2         1 83M      -0.647900
     38 N31        -12.7730    -6.0770    10.0620 nu         1 83M      -0.928200
     39 N40        -16.8990   -10.9910     6.6120 nz         1 83M      -0.673400
     40 O15         -8.7440     0.0010     4.7210 o          1 83M      -0.621100
     41 O22        -11.5030    -1.9990    10.3880 o          1 83M      -0.542100
     42 O29         -5.0590    -3.8430    12.6880 oh         1 83M      -0.520100
     43 O30        -13.6020    -7.2440     7.8240 o          1 83M      -0.577100
     44 O39        -17.1090   -10.2890     8.7060 o          1 83M      -0.421100
     45 H1          -0.3610     0.8850    -0.5110 hc         1 83M       0.040700
     46 H2          -0.3610    -0.8850    -0.5110 hc         1 83M       0.040700
     47 H3           1.8910    -0.8840     0.5110 hc         1 83M       0.040700
     48 H4           1.8910     0.8850     0.5100 hc         1 83M       0.040700
     49 H5          -2.4010    -0.8840     0.9330 hc         1 83M       0.040700
     50 H6          -2.4010     0.8850     0.9330 hc         1 83M       0.040700
     51 H7          -2.1880     0.8840     3.3960 hc         1 83M       0.039200
     52 H8          -2.1890    -0.8850     3.3960 hc         1 83M       0.039200
     53 H9          -8.3100     0.0550     7.8040 hn         1 83M       0.303500
     54 H10         -6.2680     0.8860     6.2820 hc         1 83M       0.051200
     55 H11         -6.2680    -0.8830     6.2820 hc         1 83M       0.051200
     56 H12         -6.4810     0.8850     3.8180 hc         1 83M       0.057200
     57 H13         -6.4810    -0.8840     3.8180 hc         1 83M       0.057200
     58 H14         -4.2290     0.8850     4.8390 hc         1 83M       0.035700
     59 H15         -4.2290    -0.8840     4.8390 hc         1 83M       0.035700
     60 H16         -4.4410     0.8850     2.3750 hc         1 83M       0.042700
     61 H17         -4.4420    -0.8840     2.3740 hc         1 83M       0.042700
     62 H18         -0.1490    -0.8850     1.9540 hc         1 83M       0.040200
     63 H19         -0.1490     0.8850     1.9540 hc         1 83M       0.040200
     64 H20          5.9710     0.8810    -2.3700 hc         1 83M       0.031700
     65 H21          5.9710    -0.8880    -2.3800 hc         1 83M       0.031700
     66 H22          5.9710     0.0050    -3.9070 hc         1 83M       0.031700
     67 H23          3.7180    -0.8860    -3.3950 hc         1 83M       0.039700
     68 H24          3.7180     0.8830    -3.3960 hc         1 83M       0.039700
     69 H25          3.9300    -0.8850    -0.9320 hc         1 83M       0.040700
     70 H26          3.9300     0.8840    -0.9320 hc         1 83M       0.040700
     71 H27          1.6780    -0.8850    -1.9530 hc         1 83M       0.040700
     72 H28          1.6780     0.8840    -1.9540 hc         1 83M       0.040700
     73 H29        -10.6370    -0.5850     6.1010 h1         1 83M       0.077700
     74 H30        -11.1100    -3.8120    11.9120 h1         1 83M       0.131700
     75 H31        -10.4790    -6.7860    11.4090 hc         1 83M       0.118700
     76 H32        -10.3350    -5.3040    10.5410 hc         1 83M       0.118700
     77 H33        -10.6040    -0.4250     9.2980 hc         1 83M       0.074200
     78 H34        -11.8640    -0.5910     8.1460 hc         1 83M       0.074200
     79 H35         -9.3010    -2.1620     8.2750 hc         1 83M       0.062200
     80 H36        -10.8120    -2.6140     7.4750 hc         1 83M       0.062200
     81 H37         -9.2710    -4.9120    13.9130 ha         1 83M       0.134500
     82 H38         -7.0080    -4.0820    14.4240 ha         1 83M       0.139500
     83 H39         -5.8920    -4.6250    10.3290 ha         1 83M       0.139500
     84 H40         -8.1570    -5.4560     9.8270 ha         1 83M       0.134500
     85 H41        -15.5040    -3.9810    11.5280 h1         1 83M       0.069200
     86 H42        -15.1410    -5.5040    12.3520 h1         1 83M       0.069200
     87 H43        -16.1000    -6.1450    10.3450 hc         1 83M       0.071200
     88 H44        -14.9670    -4.9390     9.4040 hc         1 83M       0.071200
     89 H45        -14.1470    -7.4170    10.9230 h1         1 83M       0.063700
     90 H46        -14.5160    -9.7040     7.1960 h1         1 83M       0.096700
     91 H47        -15.6970    -8.4950     6.6730 h1         1 83M       0.096700
     92 H48        -11.3070    -4.4050     9.2620 hn         1 83M       0.247500
     93 H49        -12.0610    -6.3690     9.4230 hn         1 83M       0.451800
     94 H50        -15.7790    -8.6870     9.5200 hn         1 83M       0.344500
     95 H51        -17.6600   -11.5770     6.8940 hn         1 83M       0.474467
     96 H52        -16.1210   -11.5610     6.3430 hn         1 83M       0.474467
     97 H54         -4.5080    -4.5650    12.9410 ho         1 83M       0.415000
     98 N32        -15.2340    -8.4550     8.7130 ns         1 83M      -0.594900
     99 O17         -9.9930     2.3310     6.7350 o          1 83M      -0.801800
    100 H403       -17.1760   -10.4260     5.8340 hn         1 83M       0.474467
    101 O18        -12.0970     1.6610     6.7940 o          1 83M      -0.801800
@<TRIPOS>BOND
     1    44    35 2
     2    39    35 1
     3    43    30 2
     4    35    34 1
     5    30    98 1
     6    30    33 1
     7    98    34 1
     8    31    32 1
     9    31    37 1
    10    19    24 1
    11    19    18 1
    12    32    33 1
    13    37    23 2
    14    29    24 ar
    15    29    28 ar
    16    33    38 1
    17    24    25 ar
    18    23    38 1
    19    23    18 1
    20    28    27 ar
    21    18    36 1
    22    25    26 ar
    23    36    22 1
    24    27    26 ar
    25    27    42 1
    26    22    41 2
    27    22    21 1
    28    99     3 1
    29    21    20 1
    30   101     3 1
    31     3    17 1
    32    20    17 1
    33    17     6 1
    34     6    16 1
    35    16    40 2
    36    16     7 1
    37     7     8 1
    38     8     9 1
    39     9    10 1
    40    10     5 1
    41     5     4 1
    42     4    11 1
    43     1    11 1
    44     1     2 1
    45    15     2 1
    46    15    14 1
    47    13    14 1
    48    13    12 1
    49     1    45 1
    50     1    46 1
    51     2    47 1
    52     2    48 1
    53     4    49 1
    54     4    50 1
    55     5    51 1
    56     5    52 1
    57     6    53 1
    58     7    54 1
    59     7    55 1
    60     8    56 1
    61     8    57 1
    62     9    58 1
    63     9    59 1
    64    10    60 1
    65    10    61 1
    66    11    62 1
    67    11    63 1
    68    12    64 1
    69    12    65 1
    70    12    66 1
    71    13    67 1
    72    13    68 1
    73    14    69 1
    74    14    70 1
    75    15    71 1
    76    15    72 1
    77    17    73 1
    78    18    74 1
    79    19    75 1
    80    19    76 1
    81    20    77 1
    82    20    78 1
    83    21    79 1
    84    21    80 1
    85    25    81 1
    86    26    82 1
    87    28    83 1
    88    29    84 1
    89    31    85 1
    90    31    86 1
    91    32    87 1
    92    32    88 1
    93    33    89 1
    94    34    90 1
    95    34    91 1
    96    36    92 1
    97    38    93 1
    98    98    94 1
    99    39    95 1
   100    39    96 1
   101    42    97 1
   102   100    39 1
@<TRIPOS>SUBSTRUCTURE
     1 83M         1 TEMP              0 ****  ****    0 ROOT
