@<TRIPOS>MOLECULE
83O
   19    19     1     0     0
SMALL
bcc


@<TRIPOS>ATOM
      1 C1           0.0000     0.0000     0.0000 cc         1 83O       0.194400
      2 C3           1.7300     0.0000     1.3020 cc         1 83O       0.088800
      3 C7           4.7070     1.0940     3.4040 c          1 83O       0.946600
      4 O8           5.6010     1.7850     2.9760 o          1 83O      -0.809800
      5 C5           3.3350     1.1680     2.7870 c3         1 83O      -0.184500
      6 N6           3.1970     2.4330     2.0510 nz         1 83O      -0.055600
      7 C4           3.1430    -0.0050     1.8250 c3         1 83O      -0.004700
      8 N2           1.3550     0.0000     0.0000 na         1 83O       0.097300
      9 N11         -0.3890     0.0010     1.2460 nd         1 83O      -0.314000
     10 N10          0.6390    -0.0060     2.0190 nd         1 83O      -0.307000
     11 H1          -0.6420     0.0020    -0.8730 h5         1 83O       0.039100
     12 H3           2.5850     1.1220     3.5680 hx         1 83O       0.112700
     13 H4           2.4850     2.4420     2.7550 hn         1 83O       0.250800
     14 H5           3.9400     3.0860     2.2020 hn         1 83O       0.250800
     15 H7           3.8350     0.0890     0.9970 hc         1 83O       0.057200
     16 H8           3.3310    -0.9350     2.3480 hc         1 83O       0.057200
     17 H9           1.9570    -0.0010    -0.7990 hn         1 83O       0.141700
     18 H63          2.8810     2.3330     1.1070 hn         1 83O       0.250800
     19 O9           4.9300     0.2790     4.4480 o          1 83O      -0.809800
@<TRIPOS>BOND
     1     1     8 1   
     2     1     9 2   
     3     1    11 1   
     4     2     7 1   
     5     2     8 1   
     6     2    10 2   
     7     3     4 1   
     8     3     5 1   
     9     3    19 1   
    10     5     6 1   
    11     5     7 1   
    12     5    12 1   
    13     6    13 1   
    14     6    14 1   
    15     6    18 1   
    16     7    15 1   
    17     7    16 1   
    18     8    17 1   
    19     9    10 1   
@<TRIPOS>SUBSTRUCTURE
     1 83O         1 TEMP              0 ****  ****    0 ROOT
