@<TRIPOS>MOLECULE
molecule
   19    19     1     0     0
SMALL
bcc


@<TRIPOS>ATOM
      1 C1           0.0000     0.0000     0.0000 cc         1 83O       0.359400
      2 C3           1.7300     0.0000     1.3020 cc         1 83O       0.298800
      3 C7           4.7070     1.0940     3.4040 c          1 83O       0.861600
      4 O8           5.6010     1.7850     2.9760 o          1 83O      -0.766300
      5 C5           3.3350     1.1680     2.7870 c3         1 83O      -0.029500
      6 N6           3.1970     2.4330     2.0510 nz         1 83O      -0.866600
      7 C4           3.1430    -0.0050     1.8250 c3         1 83O      -0.095700
      8 N2           1.3550     0.0000     0.0000 na         1 83O      -0.439700
      9 N11         -0.3890     0.0010     1.2460 nd         1 83O      -0.343000
     10 N10          0.6390    -0.0060     2.0190 nd         1 83O      -0.345000
     11 H1          -0.6420     0.0020    -0.8730 h5         1 83O       0.082100
     12 H3           2.5850     1.1220     3.5680 hx         1 83O       0.127700
     13 H4           2.4850     2.4420     2.7550 hn         1 83O       0.469133
     14 H5           3.9400     3.0860     2.2020 hn         1 83O       0.469133
     15 H7           3.8350     0.0890     0.9970 hc         1 83O       0.101700
     16 H8           3.3310    -0.9350     2.3480 hc         1 83O       0.101700
     17 H9           1.9570    -0.0010    -0.7990 hn         1 83O       0.311700
     18 H63          2.8810     2.3330     1.1070 hn         1 83O       0.469133
     19 O9           4.9300     0.2790     4.4480 o          1 83O      -0.766300
@<TRIPOS>BOND
     1     8     1 1   
     2     8     2 1   
     3     1     9 2   
     4     2     7 1   
     5     2    10 2   
     6     7     5 1   
     7    19     3 1   
     8     9    10 1   
     9     3     5 1   
    10     3     4 1   
    11     5     6 1   
    12     1    11 1   
    13     5    12 1   
    14     6    13 1   
    15     6    14 1   
    16     7    15 1   
    17     7    16 1   
    18     8    17 1   
    19    18     6 1   
@<TRIPOS>SUBSTRUCTURE
     1 83O         1 TEMP              0 ****  ****    0 ROOT
