@<TRIPOS>MOLECULE
molecule
   21    23     1     0     0
SMALL
bcc


@<TRIPOS>ATOM
      1 C6           0.0000     0.0000     0.0000 ca         1 83R      -0.132000
      2 C5           1.3730     0.0000     0.0000 ca         1 83R      -0.092000
      3 C4           3.9080     0.0020     2.7510 ca         1 83R       0.002900
      4 S1           2.4840     0.0000     3.7800 ss         1 83R      -0.096800
      5 C2           2.0860     0.0000     1.2150 cp         1 83R      -0.052000
      6 C7          -0.6980     0.0060     1.1980 ca         1 83R      -0.116000
      7 C8          -0.0180     0.0070     2.3930 ca         1 83R      -0.099000
      8 C9           5.2640     0.0030     3.1030 ca         1 83R      -0.099000
      9 C10          6.2360     0.0040     2.1300 ca         1 83R      -0.116000
     10 C11          5.8790     0.0030     0.7900 ca         1 83R      -0.132000
     11 C12          4.5540     0.0030     0.4280 ca         1 83R      -0.092000
     12 C1           1.3830     0.0010     2.4120 ca         1 83R       0.002900
     13 C3           3.5470     0.0010     1.4110 cp         1 83R      -0.052000
     14 H2          -0.5400    -0.0010    -0.9390 ha         1 83R       0.133000
     15 H1           1.9120    -0.0050    -0.9400 ha         1 83R       0.132000
     16 H3          -1.7810     0.0060     1.1920 ha         1 83R       0.134000
     17 H4          -0.5690     0.0120     3.3260 ha         1 83R       0.136000
     18 H5           5.5490     0.0040     4.1480 ha         1 83R       0.136000
     19 H6           7.2820     0.0040     2.4110 ha         1 83R       0.134000
     20 H7           6.6480     0.0040     0.0270 ha         1 83R       0.133000
     21 H8           4.2820     0.0020    -0.6210 ha         1 83R       0.132000
@<TRIPOS>BOND
     1     4     3 1
     2     4    12 1
     3     8     3 ar
     4     8     9 ar
     5     3    13 ar
     6     9    10 ar
     7    12     7 ar
     8    12     5 ar
     9     7     6 ar
    10    13     5 1
    11    13    11 ar
    12    10    11 ar
    13     5     2 ar
    14     6     1 ar
    15     2     1 ar
    16     1    14 1
    17     2    15 1
    18     6    16 1
    19     7    17 1
    20     8    18 1
    21     9    19 1
    22    10    20 1
    23    11    21 1
@<TRIPOS>SUBSTRUCTURE
     1 83R         1 TEMP              0 ****  ****    0 ROOT
