@<TRIPOS>MOLECULE
molecule
   42    44     1     0     0
SMALL
bcc


@<TRIPOS>ATOM
      1 C23          0.0000     0.0000     0.0000 c3         1 83S       0.150300
      2 C17          0.6500     0.0000     2.2580 ca         1 83S      -0.108300
      3 C20         -1.8870    -0.0010     3.3600 ca         1 83S      -0.122500
      4 C11         -0.0010    -0.4190    -6.3280 c          1 83S       0.575500
      5 C18          0.4900    -0.0000     3.6340 ca         1 83S      -0.105500
      6 C19         -0.7770    -0.0000     4.1830 ca         1 83S      -0.122500
      7 C21         -1.7280    -0.0000     1.9870 ca         1 83S      -0.105500
      8 C01         -2.2710     1.2050    -3.4130 c3         1 83S      -0.086600
      9 C03         -0.7370     2.9020    -4.4180 c3         1 83S      -0.086600
     10 C04          0.0430     0.5780    -4.0480 ca         1 83S      -0.072300
     11 C05          0.5870     0.6770    -2.7870 ca         1 83S      -0.095000
     12 C06          1.6860    -0.1090    -2.4350 ca         1 83S      -0.133600
     13 C07          2.2360    -1.0010    -3.3660 ca         1 83S       0.159100
     14 O08          3.3030    -1.7650    -3.0260 oh         1 83S      -0.482100
     15 C09          1.6870    -1.0990    -4.6340 ca         1 83S      -0.153000
     16 C10          0.5850    -0.3140    -4.9790 ca         1 83S      -0.149600
     17 O12          0.5310    -1.1140    -7.1670 o          1 83S      -0.519100
     18 O14          3.4740     0.0900    -0.9450 o          1 83S      -0.578100
     19 N15          1.4670     0.0000     0.0000 n          1 83S      -0.495800
     20 C16          1.8920     0.0000     1.4040 c3         1 83S       0.150300
     21 C22         -0.4580     0.0000     1.4360 ca         1 83S      -0.108300
     22 H1          -0.3550    -0.9010    -0.4860 h1         1 83S       0.061200
     23 H2          -0.3550     0.9010    -0.4860 h1         1 83S       0.061200
     24 H3          -2.8810    -0.0010     3.7910 ha         1 83S       0.134500
     25 H4          -0.9310     0.0880    -6.5550 h4         1 83S       0.009200
     26 H5           1.3600     0.0000     4.2800 ha         1 83S       0.132500
     27 H6          -0.9020    -0.0010     5.2600 ha         1 83S       0.134500
     28 H7          -2.5990    -0.0000     1.3420 ha         1 83S       0.132500
     29 H8          -2.0620     1.7660    -2.5100 hc         1 83S       0.039700
     30 H9          -3.1930     1.5630    -3.8550 hc         1 83S       0.039700
     31 H10         -2.3700     0.1540    -3.1700 hc         1 83S       0.039700
     32 H11         -1.4870     1.1520    -5.4140 hc         1 83S       0.055700
     33 H12          0.2370     3.0100    -4.8780 hc         1 83S       0.039700
     34 H13         -0.6880     3.2300    -3.3860 hc         1 83S       0.039700
     35 H14         -1.4590     3.5070    -4.9540 hc         1 83S       0.039700
     36 H15          0.1620     1.3670    -2.0680 ha         1 83S       0.148000
     37 H16          3.8790    -1.8480    -3.7690 ho         1 83S       0.430000
     38 H17          2.1100    -1.7880    -5.3560 ha         1 83S       0.160000
     39 H18          2.4590    -0.9010     1.6030 h1         1 83S       0.061200
     40 H19          2.4600     0.9010     1.6030 h1         1 83S       0.061200
     41 C13          2.2700    -0.0000    -1.0830 c          1 83S       0.705700
     42 C02         -1.1440     1.4280    -4.4240 c3         1 83S      -0.038400
@<TRIPOS>BOND
     1     9    42 1
     2     4    16 1
     3     4    17 2
     4    15    16 ar
     5    15    13 ar
     6    14    13 1
     7    16    10 ar
     8    13    12 ar
     9    18    41 2
    10    10    42 1
    11    10    11 ar
    12    12    11 ar
    13    12    41 1
    14    42     8 1
    15    41    19 1
    16    19    20 1
    17    19     1 1
    18    20     2 1
    19     1    21 1
    20     2    21 ar
    21     2     5 ar
    22    21     7 ar
    23     5     6 ar
    24     7     3 ar
    25     6     3 ar
    26     1    22 1
    27     1    23 1
    28     3    24 1
    29     4    25 1
    30     5    26 1
    31     6    27 1
    32     7    28 1
    33     8    29 1
    34     8    30 1
    35     8    31 1
    36    42    32 1
    37     9    33 1
    38     9    34 1
    39     9    35 1
    40    11    36 1
    41    14    37 1
    42    15    38 1
    43    20    39 1
    44    20    40 1
@<TRIPOS>SUBSTRUCTURE
     1 83S         1 TEMP              0 ****  ****    0 ROOT
