@<TRIPOS>MOLECULE
83S
   42    44     1     0     0
SMALL
bcc


@<TRIPOS>ATOM
      1 C23          0.0000     0.0000     0.0000 c3         1 83S       0.116800
      2 C17          0.6500     0.0000     2.2580 ca         1 83S      -0.115300
      3 C20         -1.8870    -0.0010     3.3600 ca         1 83S      -0.097000
      4 C11         -0.0010    -0.4190    -6.3280 c          1 83S       0.662500
      5 C18          0.4900    -0.0000     3.6340 ca         1 83S      -0.070500
      6 C19         -0.7770    -0.0000     4.1830 ca         1 83S      -0.097000
      7 C21         -1.7280    -0.0000     1.9870 ca         1 83S      -0.070500
      8 C01         -2.2710     1.2050    -3.4130 c3         1 83S       0.005900
      9 C03         -0.7370     2.9020    -4.4180 c3         1 83S       0.005900
     10 C04          0.0430     0.5780    -4.0480 ca         1 83S      -0.077300
     11 C05          0.5870     0.6770    -2.7870 ca         1 83S      -0.078000
     12 C06          1.6860    -0.1090    -2.4350 ca         1 83S      -0.152600
     13 C07          2.2360    -1.0010    -3.3660 ca         1 83S       0.180100
     14 O08          3.3030    -1.7650    -3.0260 oh         1 83S      -0.462100
     15 C09          1.6870    -1.0990    -4.6340 ca         1 83S      -0.131000
     16 C10          0.5850    -0.3140    -4.9790 ca         1 83S      -0.161600
     17 O12          0.5310    -1.1140    -7.1670 o          1 83S      -0.554100
     18 O14          3.4740     0.0900    -0.9450 o          1 83S      -0.624100
     19 N15          1.4670     0.0000     0.0000 n          1 83S      -0.165800
     20 C16          1.8920     0.0000     1.4040 c3         1 83S       0.116800
     21 C22         -0.4580     0.0000     1.4360 ca         1 83S      -0.115300
     22 H1          -0.3550    -0.9010    -0.4860 h1         1 83S       0.029450
     23 H2          -0.3550     0.9010    -0.4860 h1         1 83S       0.029450
     24 H3          -2.8810    -0.0010     3.7910 ha         1 83S       0.106000
     25 H4          -0.9310     0.0880    -6.5550 h4         1 83S      -0.025800
     26 H5           1.3600     0.0000     4.2800 ha         1 83S       0.104500
     27 H6          -0.9020    -0.0010     5.2600 ha         1 83S       0.106000
     28 H7          -2.5990    -0.0000     1.3420 ha         1 83S       0.104500
     29 H8          -2.0620     1.7660    -2.5100 hc         1 83S       0.007033
     30 H9          -3.1930     1.5630    -3.8550 hc         1 83S       0.007033
     31 H10         -2.3700     0.1540    -3.1700 hc         1 83S       0.007033
     32 H11         -1.4870     1.1520    -5.4140 hc         1 83S       0.035700
     33 H12          0.2370     3.0100    -4.8780 hc         1 83S       0.007033
     34 H13         -0.6880     3.2300    -3.3860 hc         1 83S       0.007033
     35 H14         -1.4590     3.5070    -4.9540 hc         1 83S       0.007033
     36 H15          0.1620     1.3670    -2.0680 ha         1 83S       0.126000
     37 H16          3.8790    -1.8480    -3.7690 ho         1 83S       0.409000
     38 H17          2.1100    -1.7880    -5.3560 ha         1 83S       0.133000
     39 H18          2.4590    -0.9010     1.6030 h1         1 83S       0.029450
     40 H19          2.4600     0.9010     1.6030 h1         1 83S       0.029450
     41 C13          2.2700    -0.0000    -1.0830 c          1 83S       0.638700
     42 C02         -1.1440     1.4280    -4.4240 c3         1 83S      -0.012400
@<TRIPOS>BOND
     1     1    19 1   
     2     1    21 1   
     3     1    22 1   
     4     1    23 1   
     5     2     5 ar  
     6     2    20 1   
     7     2    21 ar  
     8     3     6 ar  
     9     3     7 ar  
    10     3    24 1   
    11     4    16 1   
    12     4    17 2   
    13     4    25 1   
    14     5     6 ar  
    15     5    26 1   
    16     6    27 1   
    17     7    21 ar  
    18     7    28 1   
    19     8    29 1   
    20     8    30 1   
    21     8    31 1   
    22     8    42 1   
    23     9    33 1   
    24     9    34 1   
    25     9    35 1   
    26     9    42 1   
    27    10    11 ar  
    28    10    16 ar  
    29    10    42 1   
    30    11    12 ar  
    31    11    36 1   
    32    12    13 ar  
    33    12    41 1   
    34    13    14 1   
    35    13    15 ar  
    36    14    37 1   
    37    15    16 ar  
    38    15    38 1   
    39    18    41 2   
    40    19    20 1   
    41    19    41 1   
    42    20    39 1   
    43    20    40 1   
    44    32    42 1   
@<TRIPOS>SUBSTRUCTURE
     1 83S         1 TEMP              0 ****  ****    0 ROOT
