@<TRIPOS>MOLECULE
83T
   61    63     1     0     0
SMALL
bcc


@<TRIPOS>ATOM
      1 C01          0.0000     0.0000     0.0000 c3         1 83T       0.178100
      2 N05          1.4690     0.0000     0.0000 n7         1 83T      -0.582200
      3 C07          1.9950     0.0000     1.3720 c3         1 83T       0.201100
      4 C10          3.5020     0.0000     1.3320 ca         1 83T      -0.097300
      5 C11          4.1900     1.2000     1.3140 ca         1 83T      -0.084500
      6 C13          5.5700     1.2050     1.2780 ca         1 83T      -0.105000
      7 C15          6.2690     0.0000     1.2600 cp         1 83T      -0.024000
      8 C16          5.5700    -1.2050     1.2800 ca         1 83T      -0.105000
      9 C18          4.1900    -1.1990     1.3200 ca         1 83T      -0.084500
     10 C20          7.7520    -0.0000     1.2210 cp         1 83T      -0.052000
     11 C21          8.4510     1.2070     1.2020 ca         1 83T      -0.057000
     12 C23          9.8270     1.2000     1.1660 ca         1 83T      -0.244000
     13 C25         10.5210    -0.0060     1.1480 ca         1 83T      -0.044400
     14 N26         11.9220     0.0170     1.1170 n          1 83T       0.014000
     15 C27         12.6460    -1.2220     0.8030 c3         1 83T       0.030700
     16 C29         14.1160    -1.0790     1.2010 c3         1 83T      -0.021100
     17 C33         11.9990    -2.3590     1.6060 c3         1 83T      -0.058400
     18 C36         10.5530    -2.5310     1.1420 c3         1 83T       0.096000
     19 N38          9.8680    -3.4720     2.0320 ns         1 83T      -0.166900
     20 C40          8.8030    -4.1680     1.5860 c          1 83T       0.680100
     21 O41          8.4120    -4.0140     0.4460 o          1 83T      -0.661000
     22 O42          8.1750    -5.0320     2.4030 os         1 83T      -0.418900
     23 C43          7.0340    -5.7470     1.8560 c3         1 83T       0.196100
     24 C45          6.9170    -7.1140     2.5330 c3         1 83T      -0.019100
     25 C49          5.7590    -4.9410     2.1070 c3         1 83T      -0.019100
     26 C53          9.8310    -1.2080     1.1660 ca         1 83T      -0.148300
     27 C54          8.4490    -1.2050     1.2090 ca         1 83T      -0.067000
     28 C56         12.5950     1.1570     1.3700 c          1 83T       0.581100
     29 C57         11.8540     2.3760     1.8570 c3         1 83T      -0.109100
     30 O61         13.7950     1.2020     1.2070 o          1 83T      -0.634100
     31 H011        -0.3620     0.0020    -1.0210 h1         1 83T      -0.002300
     32 H012        -0.3610    -0.8860     0.5090 h1         1 83T      -0.002300
     33 H013        -0.3610     0.8830     0.5130 h1         1 83T      -0.002300
     34 H05          1.8030    -0.8090    -0.4850 hn         1 83T       0.253800
     35 H071         1.6470     0.8850     1.8920 h1         1 83T       0.008200
     36 H072         1.6480    -0.8850     1.8910 h1         1 83T       0.008200
     37 H11          3.6460     2.1370     1.3280 ha         1 83T       0.105500
     38 H18          3.6460    -2.1360     1.3350 ha         1 83T       0.105500
     39 H13          6.1090     2.1450     1.2640 ha         1 83T       0.115500
     40 H16          6.1090    -2.1450     1.2680 ha         1 83T       0.115500
     41 H21          7.9120     2.1440     1.1330 ha         1 83T       0.112000
     42 H54          7.9090    -2.1420     1.2620 ha         1 83T       0.143000
     43 H23         10.3720     2.1360     1.1510 ha         1 83T       0.179000
     44 H27         12.5660    -1.4330    -0.2560 h1         1 83T       0.036700
     45 H291        14.5810    -2.0570     1.2260 hc         1 83T       0.026700
     46 H292        14.1820    -0.6220     2.1810 hc         1 83T       0.026700
     47 H293        14.6270    -0.4550     0.4770 hc         1 83T       0.026700
     48 H331        12.0020    -2.0930     2.6560 hc         1 83T       0.034200
     49 H332        12.5410    -3.2770     1.4130 hc         1 83T       0.034200
     50 H36         10.5480    -2.9200     0.1310 h1         1 83T       0.067700
     51 H38         10.1880    -3.5940     2.9720 hn         1 83T       0.179500
     52 H43          7.1710    -5.8820     0.7900 h1         1 83T       0.042700
     53 H451         6.7110    -6.9780     3.5880 hc         1 83T       0.014033
     54 H452         6.1100    -7.6750     2.0770 hc         1 83T       0.014033
     55 H453         7.8460    -7.6570     2.4140 hc         1 83T       0.014033
     56 H491         5.5260    -4.3500     1.2290 hc         1 83T       0.014033
     57 H492         5.9090    -4.2830     2.9550 hc         1 83T       0.014033
     58 H493         4.9390    -5.6170     2.3160 hc         1 83T       0.014033
     59 H571        12.5430     3.0380     2.3670 hc         1 83T       0.042700
     60 H572        11.4160     2.8940     1.0120 hc         1 83T       0.042700
     61 H573        11.0700     2.0730     2.5400 hc         1 83T       0.042700
@<TRIPOS>BOND
     1     1     2 1   
     2     1    31 1   
     3     1    32 1   
     4     1    33 1   
     5     2     3 1   
     6     2    34 1   
     7     3     4 1   
     8     3    35 1   
     9     3    36 1   
    10     4     5 ar  
    11     4     9 ar  
    12     5     6 ar  
    13     5    37 1   
    14     6     7 ar  
    15     6    39 1   
    16     7     8 ar  
    17     7    10 1   
    18     8     9 ar  
    19     8    40 1   
    20     9    38 1   
    21    10    11 ar  
    22    10    27 ar  
    23    11    12 ar  
    24    11    41 1   
    25    12    13 ar  
    26    12    43 1   
    27    13    14 1   
    28    13    26 ar  
    29    14    15 1   
    30    14    28 1   
    31    15    16 1   
    32    15    17 1   
    33    15    44 1   
    34    16    45 1   
    35    16    46 1   
    36    16    47 1   
    37    17    18 1   
    38    17    48 1   
    39    17    49 1   
    40    18    19 1   
    41    18    26 1   
    42    18    50 1   
    43    19    20 1   
    44    19    51 1   
    45    20    21 2   
    46    20    22 1   
    47    22    23 1   
    48    23    24 1   
    49    23    25 1   
    50    23    52 1   
    51    24    53 1   
    52    24    54 1   
    53    24    55 1   
    54    25    56 1   
    55    25    57 1   
    56    25    58 1   
    57    26    27 ar  
    58    27    42 1   
    59    28    29 1   
    60    28    30 2   
    61    29    59 1   
    62    29    60 1   
    63    29    61 1   
@<TRIPOS>SUBSTRUCTURE
     1 83T         1 TEMP              0 ****  ****    0 ROOT
