@<TRIPOS>MOLECULE
molecule
   22    24     1     0     0
SMALL
bcc


@<TRIPOS>ATOM
      1 C4           0.0000     0.0000     0.0000 ca         1 83U      -0.097500
      2 C7           3.1280     0.0010     2.5370 ca         1 83U      -0.039000
      3 C1           0.7240    -0.0010     2.3140 cp         1 83U      -0.013000
      4 C10         -2.6890    -0.0000     0.5860 ca         1 83U      -0.104000
      5 S1           1.7700     0.0000     0.0000 sx         1 83U       0.430200
      6 C2          -0.3920    -0.0010     1.3330 cp         1 83U      -0.013000
      7 C3           1.9960     0.0000     1.7550 ca         1 83U      -0.097500
      8 C5           0.6280    -0.0010     3.7180 ca         1 83U      -0.110000
      9 C6          -1.7710    -0.0010     1.6100 ca         1 83U      -0.110000
     10 C8          -0.9200     0.0050    -1.0220 ca         1 83U      -0.039000
     11 C9           1.7610    -0.0000     4.4980 ca         1 83U      -0.104000
     12 C11          3.0160     0.0000     3.9170 ca         1 83U      -0.132000
     13 C12         -2.2750     0.0040    -0.7340 ca         1 83U      -0.132000
     14 H3           4.1070     0.0010     2.0730 ha         1 83U       0.132000
     15 H6          -3.7480    -0.0010     0.8150 ha         1 83U       0.132000
     16 H1          -0.3480    -0.0020     4.1890 ha         1 83U       0.131000
     17 H2          -2.1130    -0.0040     2.6380 ha         1 83U       0.131000
     18 H4          -0.5860     0.0080    -2.0520 ha         1 83U       0.132000
     19 H5           1.6690    -0.0010     5.5770 ha         1 83U       0.132000
     20 H7           3.9040     0.0010     4.5370 ha         1 83U       0.135000
     21 H8          -3.0040     0.0050    -1.5350 ha         1 83U       0.135000
     22 O1           2.0880     1.3370    -0.3630 o          1 83U      -0.500200
@<TRIPOS>BOND
     1     1     5 1   
     2     1     6 ar  
     3     1    10 ar  
     4     2     7 ar  
     5     2    12 ar  
     6     3     6 1   
     7     3     7 ar  
     8     3     8 ar  
     9    22     5 2   
    10     4     9 ar  
    11     4    13 ar  
    12     5     7 1   
    13     6     9 ar  
    14     8    11 ar  
    15    10    13 ar  
    16    11    12 ar  
    17     2    14 1   
    18     4    15 1   
    19     8    16 1   
    20     9    17 1   
    21    10    18 1   
    22    11    19 1   
    23    12    20 1   
    24    13    21 1   
@<TRIPOS>SUBSTRUCTURE
     1 83U         1 TEMP              0 ****  ****    0 ROOT
