@<TRIPOS>MOLECULE
molecule
   20    20     1     0     0
SMALL
bcc


@<TRIPOS>ATOM
      1 C1           0.0000     0.0000     0.0000 ca         1 83X      -0.214600
      2 C2           1.4080     0.0000     0.0000 ca         1 83X       0.185100
      3 C3           2.0940     0.0000     1.1990 ca         1 83X      -0.244000
      4 C4           1.4000    -0.0020     2.4030 ca         1 83X       0.170100
      5 C5           0.0100    -0.0020     2.4130 ca         1 83X      -0.244000
      6 C6          -0.6940    -0.0020     1.2250 ca         1 83X       0.185100
      7 O1           2.0870     0.0010    -1.1740 oh         1 83X      -0.501100
      8 O2          -2.0500    -0.0020     1.2380 oh         1 83X      -0.501100
      9 O3           2.0830    -0.0040     3.5750 oh         1 83X      -0.519100
     10 O4          -1.0550     1.0610    -1.7730 o          1 83X      -0.514100
     11 C7          -0.7360     0.0070    -1.2620 c          1 83X       0.603700
     12 C8          -1.0980    -1.2940    -1.9310 c3         1 83X      -0.182100
     13 H1           3.1770     0.0000     1.2010 ha         1 83X       0.150000
     14 H2          -0.5230    -0.0040     3.3560 ha         1 83X       0.150000
     15 H3           2.6720     0.7400    -1.1980 ho         1 83X       0.431000
     16 H4          -2.3580    -0.5660     1.9280 ho         1 83X       0.431000
     17 H5           2.2400     0.8850     3.8480 ho         1 83X       0.428000
     18 H6          -0.7760    -2.1220    -1.3100 hc         1 83X       0.062033
     19 H7          -2.1710    -1.3430    -2.0690 hc         1 83X       0.062033
     20 H8          -0.6060    -1.3540    -2.8940 hc         1 83X       0.062033
@<TRIPOS>BOND
     1    10    11 2   
     2    11     1 1   
     3    11    12 1   
     4     7     2 1   
     5     1     2 ar  
     6     1     6 ar  
     7     2     3 ar  
     8     8     6 1   
     9     6     5 ar  
    10     3     4 ar  
    11     5     4 ar  
    12     4     9 1   
    13     3    13 1   
    14     5    14 1   
    15     7    15 1   
    16     8    16 1   
    17     9    17 1   
    18    12    18 1   
    19    12    19 1   
    20    12    20 1   
@<TRIPOS>SUBSTRUCTURE
     1 83X         1 TEMP              0 ****  ****    0 ROOT
