@<TRIPOS>MOLECULE
molecule
   26    26     1     0     0
SMALL
bcc


@<TRIPOS>ATOM
      1 C1           0.0000     0.0000     0.0000 c3         1 83Y       0.318900
      2 C2           1.5300     0.0000     0.0000 c3         1 83Y       0.091100
      3 C3           2.0340     0.0000     1.4460 c3         1 83Y       0.198100
      4 C4           1.4540    -1.2150     2.1770 c3         1 83Y       0.122100
      5 C5          -0.0750    -1.1680     2.0930 c3         1 83Y       0.137100
      6 C6          -0.6600    -2.4100     2.7690 c3         1 83Y      -0.082100
      7 O1          -0.4770     1.1920     0.6260 oh         1 83Y      -0.605800
      8 O1S          5.5350     1.0410     1.3520 o          1 83Y      -0.737867
      9 O2           2.0080    -1.1660    -0.6720 oh         1 83Y      -0.587800
     10 O2S          3.3900     2.1780     0.7610 o          1 83Y      -0.737867
     11 O3           3.4610    -0.0740     1.4560 os         1 83Y      -0.589500
     12 O3S          4.0040     1.7510     2.9970 o          1 83Y      -0.737867
     13 O5          -0.4750    -1.1390     0.7220 os         1 83Y      -0.434600
     14 S            4.1500     1.2800     1.5570 s6         1 83Y       1.561300
     15 O4           1.8580    -1.1860     3.5470 oh         1 83Y      -0.588800
     16 H1          -0.3590    -0.0460    -1.0210 h2         1 83Y       0.050700
     17 H2           1.8900     0.8880    -0.5060 h1         1 83Y       0.091700
     18 H3           1.7090     0.9070     1.9410 h1         1 83Y       0.105700
     19 H4           1.8130    -2.1230     1.7080 h1         1 83Y       0.057700
     20 H5          -0.4350    -0.2770     2.5920 h1         1 83Y       0.064700
     21 H63         -1.7200    -2.4720     2.5550 hc         1 83Y       0.037700
     22 H62         -0.1630    -3.2950     2.3900 hc         1 83Y       0.037700
     23 H61         -0.5100    -2.3430     3.8400 hc         1 83Y       0.037700
     24 H6          -1.1400     1.5880     0.0850 ho         1 83Y       0.399000
     25 HO2          2.2400    -0.9450    -1.5590 ho         1 83Y       0.391000
     26 H7           2.4420    -1.9060     3.7180 ho         1 83Y       0.402000
@<TRIPOS>BOND
     1    10    14 1
     2     8    14 1
     3    14    12 1
     4    14    11 1
     5    11     3 1
     6     3     2 1
     7     3     4 1
     8     2     9 1
     9     2     1 1
    10     7     1 1
    11     1    13 1
    12    15     4 1
    13     4     5 1
    14     5    13 1
    15     5     6 1
    16     1    16 1
    17     2    17 1
    18     3    18 1
    19     4    19 1
    20     5    20 1
    21     6    21 1
    22     6    22 1
    23     6    23 1
    24     7    24 1
    25     9    25 1
    26    15    26 1
@<TRIPOS>SUBSTRUCTURE
     1 83Y         1 TEMP              0 ****  ****    0 ROOT
