@<TRIPOS>MOLECULE
molecule
   57    62     1     0     0
SMALL
bcc


@<TRIPOS>ATOM
      1 C1           0.0000     0.0000     0.0000 c          1 840       0.653100
      2 C2           1.5060     0.0000     0.0000 c3         1 840      -0.166400
      3 C3           2.0170     0.0000     1.4430 c3         1 840      -0.047400
      4 C4           3.5430    -0.0000     1.4420 c3         1 840      -0.142000
      5 C5           4.0680    -1.2570     0.7700 c          1 840       0.571300
      6 C6           4.4980    -2.4170     1.5490 ce         1 840      -0.251200
      7 C7           4.5370    -2.3850     2.8880 c2         1 840      -0.068200
      8 C8           4.0650    -1.2120     3.6200 c3         1 840      -0.078800
      9 C9           4.1610     0.1040     2.8120 c3         1 840       0.006300
     10 C10          3.5600     1.1160     3.7910 cx         1 840      -0.017200
     11 C11          4.4280     1.8970     4.7730 cx         1 840       0.036600
     12 C12          3.9420     0.5090     5.1830 cx         1 840      -0.270000
     13 C13          4.8460    -0.7440     4.8770 c3         1 840      -0.047400
     14 C14          2.6520    -1.3600     4.2180 c3         1 840       0.148100
     15 C15          2.5110    -0.0670     5.0800 cy         1 840       0.179800
     16 O16          2.1760     1.0200     4.1910 oq         1 840      -0.331600
     17 C17          1.7030    -0.2000     6.3720 c3         1 840      -0.059100
     18 C18          4.0120     1.2100     0.5980 c3         1 840      -0.083100
     19 O19          4.1300    -1.2970    -0.4470 o          1 840      -0.535100
     20 O20         -0.6070    -0.0010     1.0510 o          1 840      -0.564100
     21 C22         -4.1160    -1.1710    -0.4890 ca         1 840      -0.129600
     22 C23         -2.7150    -1.0990    -0.4850 ca         1 840       0.154100
     23 C24         -2.0750    -0.0730    -1.1690 ca         1 840      -0.021400
     24 C25         -2.8260     0.8760    -1.8560 ca         1 840       0.073100
     25 C26         -4.2140     0.8030    -1.8600 ca         1 840      -0.209000
     26 C27         -4.8580    -0.2130    -1.1890 ca         1 840      -0.071000
     27 N28         -0.6740     0.0060    -1.1670 ns         1 840      -0.474100
     28 O30         -2.2000     1.8800    -2.5240 oh         1 840      -0.524100
     29 O32         -6.1490    -2.3200     0.2250 o          1 840      -0.829800
     30 O33         -4.1560    -3.0880     0.8350 o          1 840      -0.829800
     31 O34          2.5950    -2.5200     5.0650 oh         1 840      -0.603800
     32 H2           1.8680     0.8850    -0.5110 hc         1 840       0.062700
     33 H2A          1.8680    -0.8850    -0.5110 hc         1 840       0.062700
     34 H3           1.6560     0.8850     1.9530 hc         1 840       0.076700
     35 H3A          1.6550    -0.8840     1.9530 hc         1 840       0.076700
     36 H6           4.7920    -3.3220     1.0320 ha         1 840       0.149000
     37 H7           4.9240    -3.2370     3.4340 ha         1 840       0.138000
     38 H9           5.2100     0.3440     2.6840 hc         1 840       0.063700
     39 H11          3.9390     2.7270     5.2690 hc         1 840       0.092200
     40 H11A         5.4780     1.9650     4.5140 hc         1 840       0.092200
     41 H13          4.8020    -1.4770     5.6740 hc         1 840       0.060700
     42 H13A         5.8630    -0.4590     4.6360 hc         1 840       0.060700
     43 H14          1.8980    -1.3990     3.4420 h1         1 840       0.095700
     44 H17          1.5280     0.7830     6.7920 hc         1 840       0.052033
     45 H17A         0.7530    -0.6750     6.1570 hc         1 840       0.052033
     46 H17B         2.2550    -0.8030     7.0830 hc         1 840       0.052033
     47 H18          3.9030     0.9800    -0.4550 hc         1 840       0.044700
     48 H18A         3.4090     2.0770     0.8430 hc         1 840       0.044700
     49 H18B         5.0520     1.4210     0.8150 hc         1 840       0.044700
     50 H26         -4.7920     1.5440    -2.3980 ha         1 840       0.116000
     51 H27         -5.9400    -0.2650    -1.1950 ha         1 840       0.161000
     52 HN28        -0.1740     0.0330    -2.0340 hn         1 840       0.307500
     53 HO30        -2.4130     1.8270    -3.4410 ho         1 840       0.397000
     54 HO31        -1.8500    -2.7800    -0.3640 ho         1 840       0.411000
     55 HO34         1.8820    -3.0740     4.7910 ho         1 840       0.415000
     56 C21         -4.8030    -2.2540     0.2320 c          1 840       0.883200
     57 O31         -1.9870    -2.0280     0.1880 oh         1 840      -0.479100
@<TRIPOS>BOND
     1    27     1 1
     2     1    20 2
     3     1     2 1
     4     2     3 1
     5     2    32 1
     6     2    33 1
     7     3     4 1
     8     3    34 1
     9     3    35 1
    10     9     4 1
    11     4    18 1
    12     4     5 1
    13     5    19 2
    14     5     6 1
    15     7     6 2
    16     6    36 1
    17     8     7 1
    18     7    37 1
    19     9     8 1
    20    13     8 1
    21    14     8 1
    22    10     9 1
    23     9    38 1
    24    11    10 1
    25    16    10 1
    26    10    12 1
    27    11    12 1
    28    11    39 1
    29    11    40 1
    30    12    15 1
    31    12    13 1
    32    13    41 1
    33    13    42 1
    34    15    14 1
    35    14    31 1
    36    14    43 1
    37    16    15 1
    38    17    15 1
    39    17    44 1
    40    17    45 1
    41    17    46 1
    42    18    47 1
    43    18    48 1
    44    18    49 1
    45    30    56 1
    46    56    29 1
    47    56    21 1
    48    26    21 ar
    49    21    22 ar
    50    22    23 ar
    51    22    57 1
    52    24    23 ar
    53    23    27 1
    54    25    24 ar
    55    24    28 1
    56    26    25 ar
    57    25    50 1
    58    26    51 1
    59    27    52 1
    60    28    53 1
    61    57    54 1
    62    31    55 1
@<TRIPOS>SUBSTRUCTURE
     1 840         1 TEMP              0 ****  ****    0 ROOT
