@<TRIPOS>MOLECULE
840
   57    62     1     0     0
SMALL
bcc


@<TRIPOS>ATOM
      1 C1           0.0000     0.0000     0.0000 c          1 840       0.547100
      2 C2           1.5060     0.0000     0.0000 c3         1 840      -0.122400
      3 C3           2.0170     0.0000     1.4430 c3         1 840      -0.012400
      4 C4           3.5430    -0.0000     1.4420 c3         1 840      -0.141000
      5 C5           4.0680    -1.2570     0.7700 c          1 840       0.620300
      6 C6           4.4980    -2.4170     1.5490 ce         1 840      -0.234200
      7 C7           4.5370    -2.3850     2.8880 c2         1 840      -0.035200
      8 C8           4.0650    -1.2120     3.6200 c3         1 840      -0.087800
      9 C9           4.1610     0.1040     2.8120 c3         1 840       0.036300
     10 C10          3.5600     1.1160     3.7910 cx         1 840      -0.019200
     11 C11          4.4280     1.8970     4.7730 cx         1 840       0.147600
     12 C12          3.9420     0.5090     5.1830 cx         1 840      -0.317000
     13 C13          4.8460    -0.7440     4.8770 c3         1 840       0.023600
     14 C14          2.6520    -1.3600     4.2180 c3         1 840       0.174100
     15 C15          2.5110    -0.0670     5.0800 cy         1 840       0.212800
     16 O16          2.1760     1.0200     4.1910 oq         1 840      -0.317600
     17 C17          1.7030    -0.2000     6.3720 c3         1 840       0.024900
     18 C18          4.0120     1.2100     0.5980 c3         1 840      -0.006100
     19 O19          4.1300    -1.2970    -0.4470 o          1 840      -0.563100
     20 O20         -0.6070    -0.0010     1.0510 o          1 840      -0.608100
     21 C22         -4.1160    -1.1710    -0.4890 ca         1 840      -0.149600
     22 C23         -2.7150    -1.0990    -0.4850 ca         1 840       0.194100
     23 C24         -2.0750    -0.0730    -1.1690 ca         1 840      -0.196400
     24 C25         -2.8260     0.8760    -1.8560 ca         1 840       0.102100
     25 C26         -4.2140     0.8030    -1.8600 ca         1 840      -0.210000
     26 C27         -4.8580    -0.2130    -1.1890 ca         1 840      -0.023000
     27 N28         -0.6740     0.0060    -1.1670 ns         1 840      -0.022100
     28 O30         -2.2000     1.8800    -2.5240 oh         1 840      -0.504100
     29 O32         -6.1490    -2.3200     0.2250 o          1 840      -0.880300
     30 O33         -4.1560    -3.0880     0.8350 o          1 840      -0.880300
     31 O34          2.5950    -2.5200     5.0650 oh         1 840      -0.582800
     32 H2           1.8680     0.8850    -0.5110 hc         1 840       0.036200
     33 H2A          1.8680    -0.8850    -0.5110 hc         1 840       0.036200
     34 H3           1.6560     0.8850     1.9530 hc         1 840       0.052200
     35 H3A          1.6550    -0.8840     1.9530 hc         1 840       0.052200
     36 H6           4.7920    -3.3220     1.0320 ha         1 840       0.121000
     37 H7           4.9240    -3.2370     3.4340 ha         1 840       0.108000
     38 H9           5.2100     0.3440     2.6840 hc         1 840       0.039700
     39 H11          3.9390     2.7270     5.2690 hc         1 840       0.045700
     40 H11A         5.4780     1.9650     4.5140 hc         1 840       0.045700
     41 H13          4.8020    -1.4770     5.6740 hc         1 840       0.029700
     42 H13A         5.8630    -0.4590     4.6360 hc         1 840       0.029700
     43 H14          1.8980    -1.3990     3.4420 h1         1 840       0.066700
     44 H17          1.5280     0.7830     6.7920 hc         1 840       0.016367
     45 H17A         0.7530    -0.6750     6.1570 hc         1 840       0.016367
     46 H17B         2.2550    -0.8030     7.0830 hc         1 840       0.016367
     47 H18          3.9030     0.9800    -0.4550 hc         1 840       0.015700
     48 H18A         3.4090     2.0770     0.8430 hc         1 840       0.015700
     49 H18B         5.0520     1.4210     0.8150 hc         1 840       0.015700
     50 H26         -4.7920     1.5440    -2.3980 ha         1 840       0.096000
     51 H27         -5.9400    -0.2650    -1.1950 ha         1 840       0.130000
     52 HN28        -0.1740     0.0330    -2.0340 hn         1 840       0.148500
     53 HO30        -2.4130     1.8270    -3.4410 ho         1 840       0.384000
     54 HO31        -1.8500    -2.7800    -0.3640 ho         1 840       0.392000
     55 HO34         1.8820    -3.0740     4.7910 ho         1 840       0.402000
     56 C21         -4.8030    -2.2540     0.2320 c          1 840       0.977200
     57 O31         -1.9870    -2.0280     0.1880 oh         1 840      -0.460100
@<TRIPOS>BOND
     1     1     2 1   
     2     1    20 2   
     3     1    27 1   
     4     2     3 1   
     5     2    32 1   
     6     2    33 1   
     7     3     4 1   
     8     3    34 1   
     9     3    35 1   
    10     4     5 1   
    11     4     9 1   
    12     4    18 1   
    13     5     6 1   
    14     5    19 2   
    15     6     7 2   
    16     6    36 1   
    17     7     8 1   
    18     7    37 1   
    19     8     9 1   
    20     8    13 1   
    21     8    14 1   
    22     9    10 1   
    23     9    38 1   
    24    10    11 1   
    25    10    12 1   
    26    10    16 1   
    27    11    12 1   
    28    11    39 1   
    29    11    40 1   
    30    12    13 1   
    31    12    15 1   
    32    13    41 1   
    33    13    42 1   
    34    14    15 1   
    35    14    31 1   
    36    14    43 1   
    37    15    16 1   
    38    15    17 1   
    39    17    44 1   
    40    17    45 1   
    41    17    46 1   
    42    18    47 1   
    43    18    48 1   
    44    18    49 1   
    45    21    22 ar  
    46    21    26 ar  
    47    21    56 1   
    48    22    23 ar  
    49    22    57 1   
    50    23    24 ar  
    51    23    27 1   
    52    24    25 ar  
    53    24    28 1   
    54    25    26 ar  
    55    25    50 1   
    56    26    51 1   
    57    27    52 1   
    58    28    53 1   
    59    29    56 1   
    60    30    56 1   
    61    31    55 1   
    62    54    57 1   
@<TRIPOS>SUBSTRUCTURE
     1 840         1 TEMP              0 ****  ****    0 ROOT
