@<TRIPOS>MOLECULE
841
   45    47     1     0     0
SMALL
bcc


@<TRIPOS>ATOM
      1 O            0.0000     0.0000     0.0000 o          1 841      -0.705100
      2 C11          1.2160     0.0000     0.0000 c          1 841       0.613100
      3 N3           1.8910     0.0000     1.1660 n          1 841      -0.191800
      4 C15          3.3580     0.0060     1.3110 c3         1 841       0.062500
      5 C14          3.6160     0.6230     2.7090 c3         1 841      -0.033900
      6 C13          2.4380     0.0360     3.5310 c3         1 841      -0.033900
      7 C12          1.2850     0.0010     2.5060 c3         1 841       0.062500
      8 N2           1.8900    -0.0070    -1.1680 ns         1 841      -0.229900
      9 C10          1.1570    -0.0130    -2.4360 c3         1 841       0.051000
     10 C7           2.1510    -0.0210    -3.5990 c3         1 841      -0.067700
     11 C6           1.3900     0.0980    -4.9220 c3         1 841      -0.021900
     12 C5           0.4720    -1.1150    -5.0890 c3         1 841       0.133300
     13 C8           2.9410    -1.3320    -3.5900 c3         1 841      -0.021900
     14 C9           1.9780    -2.5040    -3.7940 c3         1 841       0.133300
     15 N1           1.2750    -2.3440    -5.0740 nh         1 841      -0.465300
     16 C3           0.4900    -3.4560    -5.3530 ca         1 841       0.490200
     17 C4          -0.2580    -3.4960    -6.5260 ca         1 841      -0.247300
     18 C           -1.0350    -4.6080    -6.7910 ca         1 841      -0.043000
     19 N            0.4620    -4.4700    -4.5020 nb         1 841      -0.628000
     20 C2          -0.2700    -5.5450    -4.7300 ca         1 841       0.433200
     21 C1          -1.0400    -5.6480    -5.8700 ca         1 841      -0.255300
     22 H1           3.7430    -1.0060     1.2700 h1         1 841       0.016950
     23 H2           3.8090     0.6200     0.5410 h1         1 841       0.016950
     24 H3           4.5670     0.2910     3.1080 hc         1 841       0.023700
     25 H4           3.5580     1.7040     2.6700 hc         1 841       0.023700
     26 H5           2.1910     0.6860     4.3620 hc         1 841       0.023700
     27 H6           2.6740    -0.9640     3.8750 hc         1 841       0.023700
     28 H7           0.6610     0.8790     2.6260 h1         1 841       0.016950
     29 H8           0.6970    -0.8980     2.6440 h1         1 841       0.016950
     30 H9           2.8900     0.0310    -1.1690 hn         1 841       0.175500
     31 H10          0.5320    -0.8970    -2.4880 h1         1 841       0.034200
     32 H11          0.5350     0.8720    -2.4980 h1         1 841       0.034200
     33 H12          2.8360     0.8130    -3.5020 hc         1 841       0.028700
     34 H13          2.0970     0.1310    -5.7430 hc         1 841       0.022450
     35 H14          0.7940     1.0030    -4.9150 hc         1 841       0.022450
     36 H15         -0.0540    -1.0400    -6.0330 h1         1 841       0.029450
     37 H16         -0.2410    -1.1410    -4.2740 h1         1 841       0.029450
     38 H17          3.4460    -1.4410    -2.6380 hc         1 841       0.022450
     39 H18          3.6690    -1.3200    -4.3920 hc         1 841       0.022450
     40 H19          2.5370    -3.4310    -3.8040 h1         1 841       0.029450
     41 H20          1.2550    -2.5210    -2.9870 h1         1 841       0.029450
     42 H21         -0.2300    -2.6670    -7.2230 ha         1 841       0.123000
     43 H22         -1.6290    -4.6660    -7.6960 ha         1 841       0.106000
     44 H23         -0.2690    -6.3540    -4.0100 h4         1 841      -0.021900
     45 H24         -1.6380    -6.5340    -6.0480 ha         1 841       0.114000
@<TRIPOS>BOND
     1     1     2 2   
     2     2     3 1   
     3     2     8 1   
     4     3     4 1   
     5     3     7 1   
     6     4     5 1   
     7     4    22 1   
     8     4    23 1   
     9     5     6 1   
    10     5    24 1   
    11     5    25 1   
    12     6     7 1   
    13     6    26 1   
    14     6    27 1   
    15     7    28 1   
    16     7    29 1   
    17     8     9 1   
    18     8    30 1   
    19     9    10 1   
    20     9    31 1   
    21     9    32 1   
    22    10    11 1   
    23    10    13 1   
    24    10    33 1   
    25    11    12 1   
    26    11    34 1   
    27    11    35 1   
    28    12    15 1   
    29    12    36 1   
    30    12    37 1   
    31    13    14 1   
    32    13    38 1   
    33    13    39 1   
    34    14    15 1   
    35    14    40 1   
    36    14    41 1   
    37    15    16 1   
    38    16    17 ar  
    39    16    19 ar  
    40    17    18 ar  
    41    17    42 1   
    42    18    21 ar  
    43    18    43 1   
    44    19    20 ar  
    45    20    21 ar  
    46    20    44 1   
    47    21    45 1   
@<TRIPOS>SUBSTRUCTURE
     1 841         1 TEMP              0 ****  ****    0 ROOT
