@<TRIPOS>MOLECULE
molecule
   45    47     1     0     0
SMALL
bcc


@<TRIPOS>ATOM
      1 O            0.0000     0.0000     0.0000 o          1 841      -0.656100
      2 C11          1.2160     0.0000     0.0000 c          1 841       0.802100
      3 N3           1.8910     0.0000     1.1660 n          1 841      -0.517800
      4 C15          3.3580     0.0060     1.3110 c3         1 841       0.109000
      5 C14          3.6160     0.6230     2.7090 c3         1 841      -0.097400
      6 C13          2.4380     0.0360     3.5310 c3         1 841      -0.097400
      7 C12          1.2850     0.0010     2.5060 c3         1 841       0.109000
      8 N2           1.8900    -0.0070    -1.1680 ns         1 841      -0.604900
      9 C10          1.1570    -0.0130    -2.4360 c3         1 841       0.128000
     10 C7           2.1510    -0.0210    -3.5990 c3         1 841      -0.094700
     11 C6           1.3900     0.0980    -4.9220 c3         1 841      -0.076900
     12 C5           0.4720    -1.1150    -5.0890 c3         1 841       0.168300
     13 C8           2.9410    -1.3320    -3.5900 c3         1 841      -0.076900
     14 C9           1.9780    -2.5040    -3.7940 c3         1 841       0.168300
     15 N1           1.2750    -2.3440    -5.0740 nh         1 841      -0.700300
     16 C3           0.4900    -3.4560    -5.3530 ca         1 841       0.616200
     17 C4          -0.2580    -3.4960    -6.5260 ca         1 841      -0.269300
     18 C           -1.0350    -4.6080    -6.7910 ca         1 841      -0.074000
     19 N            0.4620    -4.4700    -4.5020 nb         1 841      -0.740000
     20 C2          -0.2700    -5.5450    -4.7300 ca         1 841       0.446200
     21 C1          -1.0400    -5.6480    -5.8700 ca         1 841      -0.285300
     22 H1           3.7430    -1.0060     1.2700 h1         1 841       0.046200
     23 H2           3.8090     0.6200     0.5410 h1         1 841       0.046200
     24 H3           4.5670     0.2910     3.1080 hc         1 841       0.055200
     25 H4           3.5580     1.7040     2.6700 hc         1 841       0.055200
     26 H5           2.1910     0.6860     4.3620 hc         1 841       0.055200
     27 H6           2.6740    -0.9640     3.8750 hc         1 841       0.055200
     28 H7           0.6610     0.8790     2.6260 h1         1 841       0.046200
     29 H8           0.6970    -0.8980     2.6440 h1         1 841       0.046200
     30 H9           2.8900     0.0310    -1.1690 hn         1 841       0.308500
     31 H10          0.5320    -0.8970    -2.4880 h1         1 841       0.055700
     32 H11          0.5350     0.8720    -2.4980 h1         1 841       0.055700
     33 H12          2.8360     0.8130    -3.5020 hc         1 841       0.053700
     34 H13          2.0970     0.1310    -5.7430 hc         1 841       0.052200
     35 H14          0.7940     1.0030    -4.9150 hc         1 841       0.052200
     36 H15         -0.0540    -1.0400    -6.0330 h1         1 841       0.053950
     37 H16         -0.2410    -1.1410    -4.2740 h1         1 841       0.053950
     38 H17          3.4460    -1.4410    -2.6380 hc         1 841       0.052200
     39 H18          3.6690    -1.3200    -4.3920 hc         1 841       0.052200
     40 H19          2.5370    -3.4310    -3.8040 h1         1 841       0.053950
     41 H20          1.2550    -2.5210    -2.9870 h1         1 841       0.053950
     42 H21         -0.2300    -2.6670    -7.2230 ha         1 841       0.143000
     43 H22         -1.6290    -4.6660    -7.6960 ha         1 841       0.137000
     44 H23         -0.2690    -6.3540    -4.0100 h4         1 841       0.022100
     45 H24         -1.6380    -6.5340    -6.0480 ha         1 841       0.137000
@<TRIPOS>BOND
     1     5     4 1   
     2     5     6 1   
     3     4     3 1   
     4     6     7 1   
     5     3     7 1   
     6     3     2 1   
     7     1     2 2   
     8     2     8 1   
     9    14    13 1   
    10    14    15 1   
    11    13    10 1   
    12     8     9 1   
    13    10     9 1   
    14    10    11 1   
    15    15    12 1   
    16    15    16 1   
    17    12    11 1   
    18    19    16 ar  
    19    19    20 ar  
    20    16    17 ar  
    21    20    21 ar  
    22    17    18 ar  
    23    21    18 ar  
    24     4    22 1   
    25     4    23 1   
    26     5    24 1   
    27     5    25 1   
    28     6    26 1   
    29     6    27 1   
    30     7    28 1   
    31     7    29 1   
    32     8    30 1   
    33     9    31 1   
    34     9    32 1   
    35    10    33 1   
    36    11    34 1   
    37    11    35 1   
    38    12    36 1   
    39    12    37 1   
    40    13    38 1   
    41    13    39 1   
    42    14    40 1   
    43    14    41 1   
    44    17    42 1   
    45    18    43 1   
    46    20    44 1   
    47    21    45 1   
@<TRIPOS>SUBSTRUCTURE
     1 841         1 TEMP              0 ****  ****    0 ROOT
