@<TRIPOS>MOLECULE
molecule
   67    70     1     0     0
SMALL
bcc


@<TRIPOS>ATOM
      1 C1           0.0000     0.0000     0.0000 c3         1 842      -0.170100
      2 C2           1.5070     0.0000     0.0000 c          1 842       0.657100
      3 N3           2.1810     0.0000     1.1670 ns         1 842      -0.583900
      4 C4           3.6420     0.1100     1.1690 c3         1 842       0.111700
      5 C5           4.0600     1.3730     0.4130 c3         1 842       0.121100
      6 C6           3.3660     2.5890     1.0290 c3         1 842       0.143800
      7 N7           3.7490     3.7990     0.2880 n7         1 842      -0.805200
      8 C8           3.1930     5.0020     0.9220 c3         1 842       0.222500
      9 C9           3.5600     6.2320     0.0900 c3         1 842      -0.063900
     10 C10          2.9850     6.0850    -1.3200 c3         1 842      -0.075400
     11 C11          1.4620     5.9600    -1.2380 c3         1 842      -0.076400
     12 C12          1.0940     4.7300    -0.4060 c3         1 842      -0.075400
     13 C13          1.6700     4.8770     1.0040 c3         1 842      -0.063900
     14 C14          3.7590     5.1470     2.3100 ca         1 842      -0.096300
     15 C15          4.9890     4.5960     2.6150 ca         1 842      -0.134000
     16 C16          5.5110     4.7310     3.8940 ca         1 842       0.045800
     17 C17          4.7940     5.4190     4.8650 ca         1 842      -0.163000
     18 C18          3.5660     5.9660     4.5540 ca         1 842      -0.106000
     19 C19          3.0510     5.8370     3.2780 ca         1 842      -0.139000
     20 N20          6.7580     4.1720     4.2060 na         1 842       0.147300
     21 N21          7.6370     3.5610     3.3030 nc         1 842      -0.499800
     22 C22          8.6950     3.1660     3.9640 cd         1 842       0.338200
     23 C23          8.5240     3.5120     5.3090 cd         1 842      -0.344300
     24 C24          7.3300     4.1340     5.4320 cc         1 842      -0.110300
     25 O25          2.1130    -0.0010    -1.0510 o          1 842      -0.618100
     26 C26          4.2470    -1.1170     0.4840 c3         1 842      -0.061100
     27 C27          3.9390    -2.3490     1.2980 ca         1 842      -0.027300
     28 C28          2.7840    -3.0670     1.0510 ca         1 842      -0.182000
     29 C29          2.4990    -4.1980     1.7980 ca         1 842       0.159400
     30 C30          3.3720    -4.6090     2.7900 ca         1 842      -0.217000
     31 C31          4.5280    -3.8890     3.0360 ca         1 842       0.159400
     32 C32          4.8130    -2.7610     2.2840 ca         1 842      -0.182000
     33 F33          1.3700    -4.9000     1.5570 f          1 842      -0.134900
     34 F34          5.3800    -4.2890     4.0050 f          1 842      -0.134900
     35 O35          5.4760     1.5360     0.5040 oh         1 842      -0.606800
     36 H1          -0.3610    -1.0160    -0.1070 hc         1 842       0.062367
     37 H1A         -0.3610     0.4150     0.9330 hc         1 842       0.062367
     38 H1B         -0.3610     0.6010    -0.8260 hc         1 842       0.062367
     39 HN3          1.6830    -0.0670     2.0320 hn         1 842       0.320500
     40 H4           3.9980     0.1660     2.1910 h1         1 842       0.074700
     41 H5           3.7730     1.2820    -0.6280 h1         1 842       0.085700
     42 H6           2.2920     2.4580     0.9750 h1         1 842       0.047200
     43 H6A          3.6660     2.6890     2.0650 h1         1 842       0.047200
     44 HN7          4.7470     3.8690     0.2580 hn         1 842       0.368800
     45 H9           4.6380     6.3190     0.0310 hc         1 842       0.044700
     46 H9A          3.1460     7.1180     0.5560 hc         1 842       0.044700
     47 H10          3.3940     5.1960    -1.7850 hc         1 842       0.048700
     48 H10A         3.2430     6.9580    -1.9070 hc         1 842       0.048700
     49 H11          1.0560     5.8530    -2.2370 hc         1 842       0.037200
     50 H11A         1.0530     6.8470    -0.7700 hc         1 842       0.037200
     51 H12          0.0150     4.6450    -0.3480 hc         1 842       0.048700
     52 H12A         1.5060     3.8430    -0.8730 hc         1 842       0.048700
     53 H13          1.4110     4.0040     1.5910 hc         1 842       0.044700
     54 H13A         1.2600     5.7660     1.4690 hc         1 842       0.044700
     55 H15          5.5460     4.0600     1.8560 ha         1 842       0.169000
     56 H17          5.1980     5.5230     5.8640 ha         1 842       0.134000
     57 H18          3.0070     6.5050     5.3110 ha         1 842       0.135000
     58 H19          2.0870     6.2680     3.0380 ha         1 842       0.138000
     59 H22          9.5540     2.6560     3.5440 h4         1 842       0.051100
     60 H23          9.2280     3.3210     6.1100 ha         1 842       0.157000
     61 H24          6.9040     4.5250     6.3480 h4         1 842       0.172000
     62 H26          3.8230    -1.2240    -0.5070 hc         1 842       0.078700
     63 H26A         5.3200    -0.9950     0.4070 hc         1 842       0.078700
     64 H28          2.1010    -2.7450     0.2740 ha         1 842       0.153500
     65 H30          3.1490    -5.4930     3.3760 ha         1 842       0.159000
     66 H32          5.7180    -2.1970     2.4760 ha         1 842       0.153500
     67 HO35         5.8660     1.3770    -0.3400 ho         1 842       0.409000
@<TRIPOS>BOND
     1     2     1 1   
     2     1    36 1   
     3     1    37 1   
     4     1    38 1   
     5    25     2 2   
     6     2     3 1   
     7     4     3 1   
     8     3    39 1   
     9     5     4 1   
    10     4    26 1   
    11     4    40 1   
    12    35     5 1   
    13     6     5 1   
    14     5    41 1   
    15     7     6 1   
    16     6    42 1   
    17     6    43 1   
    18     8     7 1   
    19     7    44 1   
    20    14     8 1   
    21     9     8 1   
    22     8    13 1   
    23    10     9 1   
    24     9    45 1   
    25     9    46 1   
    26    10    11 1   
    27    10    47 1   
    28    10    48 1   
    29    11    12 1   
    30    11    49 1   
    31    11    50 1   
    32    12    13 1   
    33    12    51 1   
    34    12    52 1   
    35    13    53 1   
    36    13    54 1   
    37    15    14 ar  
    38    19    14 ar  
    39    16    15 ar  
    40    15    55 1   
    41    20    16 1   
    42    17    16 ar  
    43    17    18 ar  
    44    17    56 1   
    45    18    19 ar  
    46    18    57 1   
    47    19    58 1   
    48    21    20 1   
    49    24    20 1   
    50    22    21 2   
    51    22    23 1   
    52    22    59 1   
    53    23    24 2   
    54    23    60 1   
    55    24    61 1   
    56    26    27 1   
    57    26    62 1   
    58    26    63 1   
    59    32    27 ar  
    60    27    28 ar  
    61    28    29 ar  
    62    28    64 1   
    63    30    29 ar  
    64    29    33 1   
    65    31    30 ar  
    66    30    65 1   
    67    34    31 1   
    68    32    31 ar  
    69    32    66 1   
    70    35    67 1   
@<TRIPOS>SUBSTRUCTURE
     1 842         1 TEMP              0 ****  ****    0 ROOT
