@<TRIPOS>MOLECULE
molecule
   57    60     1     0     0
SMALL
bcc


@<TRIPOS>ATOM
      1 C01          0.0000     0.0000     0.0000 c3         1 844       0.126200
      2 O02          1.4290     0.0000     0.0000 os         1 844      -0.310400
      3 C03          2.0460     0.0000     1.2120 ca         1 844       0.160100
      4 C04          3.4340    -0.0000     1.2850 ca         1 844       0.052100
      5 O05          4.1750    -0.0010     0.1440 os         1 844      -0.323900
      6 C06          4.5280     1.2720    -0.4000 c3         1 844       0.134700
      7 C07          4.0670     0.0000     2.5240 ca         1 844       0.160100
      8 C08          3.3140     0.0010     3.6860 ca         1 844      -0.243500
      9 C09          1.9240    -0.0000     3.6140 cp         1 844       0.036000
     10 C10          1.2910     0.0060     2.3730 ca         1 844      -0.243500
     11 C11          1.1160     0.0010     4.8590 cp         1 844      -0.156300
     12 C12         -0.2790     0.0000     4.7980 ca         1 844      -0.082000
     13 C13         -0.9910    -0.0000     5.9990 cp         1 844      -0.146300
     14 C14         -0.2890     0.0010     7.2020 ca         1 844       0.423200
     15 N15          1.0290     0.0020     7.2170 nb         1 844      -0.684000
     16 C16          1.7380    -0.0050     6.1070 ca         1 844       0.425200
     17 C17         -2.4750     0.0010     5.9930 cp         1 844      -0.066000
     18 C18         -3.1770     0.0010     7.1970 ca         1 844      -0.093000
     19 C19         -4.5560     0.0020     7.1890 ca         1 844      -0.165500
     20 C20         -5.2450     0.0020     5.9820 ca         1 844       0.114600
     21 C21         -4.5460     0.0020     4.7800 ca         1 844      -0.165500
     22 C22         -3.1680     0.0070     4.7840 ca         1 844      -0.093000
     23 N23         -6.6410     0.0010     5.9760 nh         1 844      -0.599000
     24 C24         -7.1620     0.0010     4.6020 c3         1 844       0.165800
     25 C25         -8.6900     0.0820     4.6390 c3         1 844       0.154800
     26 N26         -9.2190    -1.0590     5.4000 n7         1 844      -0.821200
     27 C27         -8.6980    -1.0590     6.7740 c3         1 844       0.154800
     28 C28         -7.1700    -1.1380     6.7380 c3         1 844       0.165800
     29 O29          5.4260    -0.0000     2.5940 os         1 844      -0.310400
     30 C30          6.0090     0.0000     3.8990 c3         1 844       0.126200
     31 H011        -0.3610     0.9230     0.4370 h1         1 844       0.043200
     32 H012        -0.3610    -0.8400     0.5810 h1         1 844       0.043200
     33 H013        -0.3610    -0.0830    -1.0180 h1         1 844       0.043200
     34 H10          0.2090     0.0060     2.3150 ha         1 844       0.141000
     35 H061         4.6760     1.1790    -1.4690 h1         1 844       0.034367
     36 H062         3.7330     1.9820    -0.2060 h1         1 844       0.034367
     37 H063         5.4440     1.6210     0.0620 h1         1 844       0.034367
     38 H08          3.8070    -0.0020     4.6510 ha         1 844       0.141000
     39 H12         -0.7940    -0.0000     3.8450 ha         1 844       0.142000
     40 H16          2.8200    -0.0040     6.1640 h4         1 844       0.025100
     41 H14         -0.8330     0.0030     8.1390 h4         1 844       0.027100
     42 H18         -2.6400     0.0010     8.1380 ha         1 844       0.132000
     43 H22         -2.6230     0.0070     3.8470 ha         1 844       0.132000
     44 H19         -5.1030     0.0020     8.1240 ha         1 844       0.139500
     45 H21         -5.0850     0.0040     3.8400 ha         1 844       0.139500
     46 H241        -6.8620    -0.9120     4.1030 h1         1 844       0.050450
     47 H242        -6.7690     0.8580     4.0680 h1         1 844       0.050450
     48 H281        -6.7840    -1.1060     7.7500 h1         1 844       0.050450
     49 H282        -6.8690    -2.0620     6.2600 h1         1 844       0.050450
     50 H251        -8.9900     1.0060     5.1190 h1         1 844       0.041700
     51 H252        -9.0770     0.0510     3.6280 h1         1 844       0.041700
     52 H26        -10.2190    -1.0100     5.4220 hn         1 844       0.357800
     53 H271        -9.0910    -1.9150     7.3080 h1         1 844       0.041700
     54 H272        -9.0000    -0.1460     7.2740 h1         1 844       0.041700
     55 H301         7.0850     0.0850     3.8140 h1         1 844       0.043200
     56 H302         5.7590    -0.9240     4.4060 h1         1 844       0.043200
     57 H303         5.6240     0.8390     4.4660 h1         1 844       0.043200
@<TRIPOS>BOND
     1     1     2 1
     2     2     3 1
     3     3     4 ar
     4     3    10 ar
     5     4     5 1
     6     4     7 ar
     7     5     6 1
     8     7     8 ar
     9     7    29 1
    10     8     9 ar
    11     9    10 ar
    12     9    11 1
    13    11    12 ar
    14    11    16 ar
    15    12    13 ar
    16    13    14 ar
    17    13    17 1
    18    14    15 ar
    19    15    16 ar
    20    17    18 ar
    21    17    22 ar
    22    18    19 ar
    23    19    20 ar
    24    20    21 ar
    25    20    23 1
    26    21    22 ar
    27    23    24 1
    28    23    28 1
    29    24    25 1
    30    25    26 1
    31    26    27 1
    32    27    28 1
    33    29    30 1
    34     1    31 1
    35     1    32 1
    36     1    33 1
    37    10    34 1
    38     6    35 1
    39     6    36 1
    40     6    37 1
    41     8    38 1
    42    12    39 1
    43    16    40 1
    44    14    41 1
    45    18    42 1
    46    22    43 1
    47    19    44 1
    48    21    45 1
    49    24    46 1
    50    24    47 1
    51    28    48 1
    52    28    49 1
    53    25    50 1
    54    25    51 1
    55    26    52 1
    56    27    53 1
    57    27    54 1
    58    30    55 1
    59    30    56 1
    60    30    57 1
@<TRIPOS>SUBSTRUCTURE
     1 844         1 TEMP              0 ****  ****    0 ROOT
