@<TRIPOS>MOLECULE
844
   57    60     1     0     0
SMALL
bcc


@<TRIPOS>ATOM
      1 C01          0.0000     0.0000     0.0000 c3         1 844       0.240200
      2 O02          1.4290     0.0000     0.0000 os         1 844      -0.291400
      3 C03          2.0460     0.0000     1.2120 ca         1 844       0.168100
      4 C04          3.4340    -0.0000     1.2850 ca         1 844       0.045100
      5 O05          4.1750    -0.0010     0.1440 os         1 844      -0.308900
      6 C06          4.5280     1.2720    -0.4000 c3         1 844       0.250700
      7 C07          4.0670     0.0000     2.5240 ca         1 844       0.168100
      8 C08          3.3140     0.0010     3.6860 ca         1 844      -0.243000
      9 C09          1.9240    -0.0000     3.6140 cp         1 844       0.050000
     10 C10          1.2910     0.0060     2.3730 ca         1 844      -0.243000
     11 C11          1.1160     0.0010     4.8590 cp         1 844      -0.146300
     12 C12         -0.2790     0.0000     4.7980 ca         1 844      -0.072000
     13 C13         -0.9910    -0.0000     5.9990 cp         1 844      -0.133300
     14 C14         -0.2890     0.0010     7.2020 ca         1 844       0.398200
     15 N15          1.0290     0.0020     7.2170 nb         1 844      -0.574000
     16 C16          1.7380    -0.0050     6.1070 ca         1 844       0.400200
     17 C17         -2.4750     0.0010     5.9930 cp         1 844      -0.061000
     18 C18         -3.1770     0.0010     7.1970 ca         1 844      -0.068000
     19 C19         -4.5560     0.0020     7.1890 ca         1 844      -0.145500
     20 C20         -5.2450     0.0020     5.9820 ca         1 844       0.030600
     21 C21         -4.5460     0.0020     4.7800 ca         1 844      -0.145500
     22 C22         -3.1680     0.0070     4.7840 ca         1 844      -0.068000
     23 N23         -6.6410     0.0010     5.9760 nh         1 844      -0.362000
     24 C24         -7.1620     0.0010     4.6020 c3         1 844       0.135800
     25 C25         -8.6900     0.0820     4.6390 c3         1 844       0.144800
     26 N26         -9.2190    -1.0590     5.4000 n7         1 844      -0.584200
     27 C27         -8.6980    -1.0590     6.7740 c3         1 844       0.144800
     28 C28         -7.1700    -1.1380     6.7380 c3         1 844       0.135800
     29 O29          5.4260    -0.0000     2.5940 os         1 844      -0.291400
     30 C30          6.0090     0.0000     3.8990 c3         1 844       0.240200
     31 H011        -0.3610     0.9230     0.4370 h1         1 844      -0.001800
     32 H012        -0.3610    -0.8400     0.5810 h1         1 844      -0.001800
     33 H013        -0.3610    -0.0830    -1.0180 h1         1 844      -0.001800
     34 H10          0.2090     0.0060     2.3150 ha         1 844       0.133000
     35 H061         4.6760     1.1790    -1.4690 h1         1 844      -0.009300
     36 H062         3.7330     1.9820    -0.2060 h1         1 844      -0.009300
     37 H063         5.4440     1.6210     0.0620 h1         1 844      -0.009300
     38 H08          3.8070    -0.0020     4.6510 ha         1 844       0.133000
     39 H12         -0.7940    -0.0000     3.8450 ha         1 844       0.123000
     40 H16          2.8200    -0.0040     6.1640 h4         1 844      -0.014900
     41 H14         -0.8330     0.0030     8.1390 h4         1 844      -0.011900
     42 H18         -2.6400     0.0010     8.1380 ha         1 844       0.109000
     43 H22         -2.6230     0.0070     3.8470 ha         1 844       0.109000
     44 H19         -5.1030     0.0020     8.1240 ha         1 844       0.120000
     45 H21         -5.0850     0.0040     3.8400 ha         1 844       0.120000
     46 H241        -6.8620    -0.9120     4.1030 h1         1 844       0.024700
     47 H242        -6.7690     0.8580     4.0680 h1         1 844       0.024700
     48 H281        -6.7840    -1.1060     7.7500 h1         1 844       0.024700
     49 H282        -6.8690    -2.0620     6.2600 h1         1 844       0.024700
     50 H251        -8.9900     1.0060     5.1190 h1         1 844       0.012700
     51 H252        -9.0770     0.0510     3.6280 h1         1 844       0.012700
     52 H26        -10.2190    -1.0100     5.4220 hn         1 844       0.255800
     53 H271        -9.0910    -1.9150     7.3080 h1         1 844       0.012700
     54 H272        -9.0000    -0.1460     7.2740 h1         1 844       0.012700
     55 H301         7.0850     0.0850     3.8140 h1         1 844      -0.001800
     56 H302         5.7590    -0.9240     4.4060 h1         1 844      -0.001800
     57 H303         5.6240     0.8390     4.4660 h1         1 844      -0.001800
@<TRIPOS>BOND
     1     1     2 1   
     2     1    31 1   
     3     1    32 1   
     4     1    33 1   
     5     2     3 1   
     6     3     4 ar  
     7     3    10 ar  
     8     4     5 1   
     9     4     7 ar  
    10     5     6 1   
    11     6    35 1   
    12     6    36 1   
    13     6    37 1   
    14     7     8 ar  
    15     7    29 1   
    16     8     9 ar  
    17     8    38 1   
    18     9    10 ar  
    19     9    11 1   
    20    10    34 1   
    21    11    12 ar  
    22    11    16 ar  
    23    12    13 ar  
    24    12    39 1   
    25    13    14 ar  
    26    13    17 1   
    27    14    15 ar  
    28    14    41 1   
    29    15    16 ar  
    30    16    40 1   
    31    17    18 ar  
    32    17    22 ar  
    33    18    19 ar  
    34    18    42 1   
    35    19    20 ar  
    36    19    44 1   
    37    20    21 ar  
    38    20    23 1   
    39    21    22 ar  
    40    21    45 1   
    41    22    43 1   
    42    23    24 1   
    43    23    28 1   
    44    24    25 1   
    45    24    46 1   
    46    24    47 1   
    47    25    26 1   
    48    25    50 1   
    49    25    51 1   
    50    26    27 1   
    51    26    52 1   
    52    27    28 1   
    53    27    53 1   
    54    27    54 1   
    55    28    48 1   
    56    28    49 1   
    57    29    30 1   
    58    30    55 1   
    59    30    56 1   
    60    30    57 1   
@<TRIPOS>SUBSTRUCTURE
     1 844         1 TEMP              0 ****  ****    0 ROOT
