@<TRIPOS>MOLECULE
molecule
   59    63     1     0     0
SMALL
bcc


@<TRIPOS>ATOM
      1 N1           0.0000     0.0000     0.0000 na         1 845      -0.093500
      2 C2           1.4170     0.0000     0.0000 cc         1 845      -0.082300
      3 C3           1.8280     0.0000     1.4120 cc         1 845      -0.155000
      4 C4           0.7200    -0.0010     2.1610 cd         1 845      -0.086600
      5 N5          -0.4070    -0.0000     1.3400 na         1 845      -0.268400
      6 C6          -0.8310     0.0060    -1.1200 ca         1 845       0.070800
      7 C7          -0.6250     0.9320    -2.1370 ca         1 845      -0.107000
      8 C8          -1.4490     0.9350    -3.2440 ca         1 845      -0.106000
      9 C9          -2.4790     0.0170    -3.3440 ca         1 845      -0.133000
     10 C10         -2.6870    -0.9070    -2.3360 ca         1 845      -0.130300
     11 C11         -1.8620    -0.9190    -1.2280 ca         1 845      -0.150000
     12 C12          2.2310     0.0010    -1.0820 cd         1 845       0.297900
     13 C13         -3.8100    -1.9040    -2.4490 c3         1 845       0.162300
     14 N14         -3.3250    -3.1120    -3.1210 ns         1 845      -0.534900
     15 C15          0.6920    -0.0010     3.6670 c3         1 845       0.698200
     16 F16          2.0030    -0.0020     4.1570 f          1 845      -0.211633
     17 F17          0.0240     1.1390     4.1220 f          1 845      -0.211633
     18 F18          0.0250    -1.1450     4.1210 f          1 845      -0.211633
     19 C19         -4.1610    -4.1480    -3.3330 c          1 845       0.631100
     20 C20         -3.6610    -5.3910    -4.0230 c3         1 845       0.019500
     21 O21         -5.3160    -4.0790    -2.9690 o          1 845      -0.599100
     22 N22         -4.5600    -6.5140    -3.7220 nz         1 845      -0.795600
     23 C23         -3.6290    -5.1560    -5.5350 c3         1 845      -0.114100
     24 N24          3.6140     0.1200    -1.0810 na         1 845      -0.271400
     25 N25          4.0170     0.0680    -2.4230 nc         1 845      -0.480800
     26 C26          2.9570    -0.0710    -3.1620 cd         1 845       0.555900
     27 O27          1.8530    -0.1210    -2.3810 os         1 845      -0.399800
     28 C28          2.9560    -0.1640    -4.6340 ca         1 845      -0.085500
     29 C29          1.7550    -0.2380    -5.3340 ca         1 845      -0.129000
     30 C30          1.7580    -0.3260    -6.7150 ca         1 845      -0.128000
     31 C31          2.9430    -0.3440    -7.4200 ca         1 845      -0.115000
     32 C32          4.1590    -0.2730    -6.7480 ca         1 845      -0.042200
     33 C33          4.1710    -0.1760    -5.3470 ca         1 845      -0.068800
     34 C34          5.5790    -0.1120    -4.9560 cc         1 845      -0.189200
     35 C35          6.3030    -0.1640    -6.0860 cd         1 845      -0.088100
     36 N36          5.4720    -0.2690    -7.1670 na         1 845      -0.180400
     37 H5          -1.3560    -0.0000     1.6570 hn         1 845       0.333700
     38 H3           2.6930    -0.5710     1.7250 ha         1 845       0.169000
     39 H7           0.1810     1.6510    -2.0600 ha         1 845       0.162000
     40 H11         -2.0260    -1.6430    -0.4380 ha         1 845       0.137000
     41 H8          -1.2880     1.6570    -4.0360 ha         1 845       0.148000
     42 H9          -3.1250     0.0230    -4.2130 ha         1 845       0.133000
     43 H131        -4.1670    -2.1600    -1.4590 h1         1 845       0.073200
     44 H132        -4.6200    -1.4720    -3.0240 h1         1 845       0.073200
     45 H24          4.2060     0.2220    -0.2810 hn         1 845       0.358700
     46 H14         -2.3670    -3.1760    -3.4050 hn         1 845       0.333500
     47 H20         -2.6630    -5.6220    -3.6720 hx         1 845       0.119700
     48 H221        -5.4550    -6.3460    -4.1380 hn         1 845       0.463467
     49 H222        -4.1730    -7.3590    -4.0930 hn         1 845       0.463467
     50 H231        -2.6430    -4.8140    -5.8260 hc         1 845       0.082367
     51 H232        -3.8570    -6.0820    -6.0490 hc         1 845       0.082367
     52 H233        -4.3640    -4.4060    -5.8000 hc         1 845       0.082367
     53 H29          0.8150    -0.2250    -4.7950 ha         1 845       0.135000
     54 H30          0.8170    -0.3830    -7.2490 ha         1 845       0.131000
     55 H31          2.9270    -0.4130    -8.5010 ha         1 845       0.132000
     56 H36          5.7720    -0.3250    -8.1200 hn         1 845       0.302700
     57 H34          5.9640    -0.0280    -3.9470 ha         1 845       0.179000
     58 H35          7.3850    -0.1290    -6.1340 h4         1 845       0.176000
     59 H223        -4.6640    -6.6000    -2.7310 hn         1 845       0.463467
@<TRIPOS>BOND
     1     1     2 1   
     2     1     5 1   
     3     1     6 1   
     4     2     3 1   
     5     2    12 2   
     6     3     4 2   
     7     4     5 1   
     8     4    15 1   
     9     6     7 ar  
    10     6    11 ar  
    11     7     8 ar  
    12     8     9 ar  
    13     9    10 ar  
    14    10    11 ar  
    15    10    13 1   
    16    12    24 1   
    17    12    27 1   
    18    13    14 1   
    19    14    19 1   
    20    15    16 1   
    21    15    17 1   
    22    15    18 1   
    23    19    20 1   
    24    19    21 2   
    25    20    22 1   
    26    20    23 1   
    27    24    25 1   
    28    25    26 2   
    29    26    27 1   
    30    26    28 1   
    31    28    29 ar  
    32    28    33 ar  
    33    29    30 ar  
    34    30    31 ar  
    35    31    32 ar  
    36    32    33 ar  
    37    32    36 1   
    38    33    34 1   
    39    34    35 2   
    40    35    36 1   
    41     5    37 1   
    42     3    38 1   
    43     7    39 1   
    44    11    40 1   
    45     8    41 1   
    46     9    42 1   
    47    13    43 1   
    48    13    44 1   
    49    24    45 1   
    50    14    46 1   
    51    20    47 1   
    52    22    48 1   
    53    22    49 1   
    54    23    50 1   
    55    23    51 1   
    56    23    52 1   
    57    29    53 1   
    58    30    54 1   
    59    31    55 1   
    60    36    56 1   
    61    34    57 1   
    62    35    58 1   
    63    59    22 1   
@<TRIPOS>SUBSTRUCTURE
     1 845         1 TEMP              0 ****  ****    0 ROOT
