@<TRIPOS>MOLECULE
845
   59    63     1     0     0
SMALL
bcc


@<TRIPOS>ATOM
      1 N1           0.0000     0.0000     0.0000 na         1 845       0.201500
      2 C2           1.4170     0.0000     0.0000 cc         1 845      -0.244300
      3 C3           1.8280     0.0000     1.4120 cc         1 845      -0.108000
      4 C4           0.7200    -0.0010     2.1610 cd         1 845      -0.264600
      5 N5          -0.4070    -0.0000     1.3400 na         1 845       0.050600
      6 C6          -0.8310     0.0060    -1.1200 ca         1 845      -0.077200
      7 C7          -0.6250     0.9320    -2.1370 ca         1 845      -0.087000
      8 C8          -1.4490     0.9350    -3.2440 ca         1 845      -0.069000
      9 C9          -2.4790     0.0170    -3.3440 ca         1 845      -0.105000
     10 C10         -2.6870    -0.9070    -2.3360 ca         1 845      -0.137300
     11 C11         -1.8620    -0.9190    -1.2280 ca         1 845      -0.127000
     12 C12          2.2310     0.0010    -1.0820 cd         1 845       0.171900
     13 C13         -3.8100    -1.9040    -2.4490 c3         1 845       0.107300
     14 N14         -3.3250    -3.1120    -3.1210 ns         1 845      -0.102900
     15 C15          0.6920    -0.0010     3.6670 c3         1 845       0.668200
     16 F16          2.0030    -0.0020     4.1570 f          1 845      -0.201633
     17 F17          0.0240     1.1390     4.1220 f          1 845      -0.201633
     18 F18          0.0250    -1.1450     4.1210 f          1 845      -0.201633
     19 C19         -4.1610    -4.1480    -3.3330 c          1 845       0.536100
     20 C20         -3.6610    -5.3910    -4.0230 c3         1 845      -0.158500
     21 O21         -5.3160    -4.0790    -2.9690 o          1 845      -0.646100
     22 N22         -4.5600    -6.5140    -3.7220 nz         1 845       0.099400
     23 C23         -3.6290    -5.1560    -5.5350 c3         1 845       0.006900
     24 N24          3.6140     0.1200    -1.0810 na         1 845       0.143600
     25 N25          4.0170     0.0680    -2.4230 nc         1 845      -0.599800
     26 C26          2.9570    -0.0710    -3.1620 cd         1 845       0.572900
     27 O27          1.8530    -0.1210    -2.3810 os         1 845      -0.366800
     28 C28          2.9560    -0.1640    -4.6340 ca         1 845      -0.080500
     29 C29          1.7550    -0.2380    -5.3340 ca         1 845      -0.117000
     30 C30          1.7580    -0.3260    -6.7150 ca         1 845      -0.106000
     31 C31          2.9430    -0.3440    -7.4200 ca         1 845      -0.072000
     32 C32          4.1590    -0.2730    -6.7480 ca         1 845      -0.231200
     33 C33          4.1710    -0.1760    -5.3470 ca         1 845      -0.067800
     34 C34          5.5790    -0.1120    -4.9560 cc         1 845      -0.151200
     35 C35          6.3030    -0.1640    -6.0860 cd         1 845      -0.257100
     36 N36          5.4720    -0.2690    -7.1670 na         1 845       0.358600
     37 H5          -1.3560    -0.0000     1.6570 hn         1 845       0.167700
     38 H3           2.6930    -0.5710     1.7250 ha         1 845       0.142000
     39 H7           0.1810     1.6510    -2.0600 ha         1 845       0.133000
     40 H11         -2.0260    -1.6430    -0.4380 ha         1 845       0.110000
     41 H8          -1.2880     1.6570    -4.0360 ha         1 845       0.116000
     42 H9          -3.1250     0.0230    -4.2130 ha         1 845       0.107000
     43 H131        -4.1670    -2.1600    -1.4590 h1         1 845       0.043200
     44 H132        -4.6200    -1.4720    -3.0240 h1         1 845       0.043200
     45 H24          4.2060     0.2220    -0.2810 hn         1 845       0.190700
     46 H14         -2.3670    -3.1760    -3.4050 hn         1 845       0.186500
     47 H20         -2.6630    -5.6220    -3.6720 hx         1 845       0.091700
     48 H221        -5.4550    -6.3460    -4.1380 hn         1 845       0.229467
     49 H222        -4.1730    -7.3590    -4.0930 hn         1 845       0.229467
     50 H231        -2.6430    -4.8140    -5.8260 hc         1 845       0.041033
     51 H232        -3.8570    -6.0820    -6.0490 hc         1 845       0.041033
     52 H233        -4.3640    -4.4060    -5.8000 hc         1 845       0.041033
     53 H29          0.8150    -0.2250    -4.7950 ha         1 845       0.106000
     54 H30          0.8170    -0.3830    -7.2490 ha         1 845       0.100000
     55 H31          2.9270    -0.4130    -8.5010 ha         1 845       0.102000
     56 H36          5.7720    -0.3250    -8.1200 hn         1 845       0.118700
     57 H34          5.9640    -0.0280    -3.9470 ha         1 845       0.154000
     58 H35          7.3850    -0.1290    -6.1340 h4         1 845       0.146000
     59 H223        -4.6640    -6.6000    -2.7310 hn         1 845       0.229467
@<TRIPOS>BOND
     1     1     2 1   
     2     1     5 1   
     3     1     6 1   
     4     2     3 1   
     5     2    12 2   
     6     3     4 2   
     7     3    38 1   
     8     4     5 1   
     9     4    15 1   
    10     5    37 1   
    11     6     7 ar  
    12     6    11 ar  
    13     7     8 ar  
    14     7    39 1   
    15     8     9 ar  
    16     8    41 1   
    17     9    10 ar  
    18     9    42 1   
    19    10    11 ar  
    20    10    13 1   
    21    11    40 1   
    22    12    24 1   
    23    12    27 1   
    24    13    14 1   
    25    13    43 1   
    26    13    44 1   
    27    14    19 1   
    28    14    46 1   
    29    15    16 1   
    30    15    17 1   
    31    15    18 1   
    32    19    20 1   
    33    19    21 2   
    34    20    22 1   
    35    20    23 1   
    36    20    47 1   
    37    22    48 1   
    38    22    49 1   
    39    22    59 1   
    40    23    50 1   
    41    23    51 1   
    42    23    52 1   
    43    24    25 1   
    44    24    45 1   
    45    25    26 2   
    46    26    27 1   
    47    26    28 1   
    48    28    29 ar  
    49    28    33 ar  
    50    29    30 ar  
    51    29    53 1   
    52    30    31 ar  
    53    30    54 1   
    54    31    32 ar  
    55    31    55 1   
    56    32    33 ar  
    57    32    36 1   
    58    33    34 1   
    59    34    35 2   
    60    34    57 1   
    61    35    36 1   
    62    35    58 1   
    63    36    56 1   
@<TRIPOS>SUBSTRUCTURE
     1 845         1 TEMP              0 ****  ****    0 ROOT
