@<TRIPOS>MOLECULE
molecule
   79    84     1     0     0
SMALL
bcc


@<TRIPOS>ATOM
      1 C1           0.0000     0.0000     0.0000 c          1 846       0.825500
      2 C2           2.0630    -0.0020    -1.2760 c3         1 846       0.168300
      3 C3           2.1030     0.0000     1.2510 c3         1 846       0.093700
      4 C4           2.1460    -1.3920     1.8570 c3         1 846       0.111100
      5 C5           0.7510    -1.9730     2.0180 c3         1 846       0.100100
      6 C6          -0.3010    -0.8850     2.2750 c3         1 846       0.108700
      7 C7          -2.2210    -0.0960     0.8760 c3         1 846       0.156000
      8 C20          2.1800    -1.4150    -1.7840 ca         1 846      -0.119300
      9 C21          3.3330    -2.1360    -1.5540 ca         1 846      -0.021000
     10 C22          3.4380    -3.4480    -2.0200 ca         1 846      -0.165600
     11 C23          2.3780    -4.0170    -2.7280 ca         1 846      -0.106000
     12 C24          1.2320    -3.2830    -2.9570 ca         1 846      -0.148000
     13 C25          1.1330    -1.9860    -2.4870 ca         1 846      -0.079000
     14 C26          4.6680    -4.2280    -1.7700 c          1 846       0.667700
     15 C27          5.9240    -6.2250    -1.9920 cc         1 846       0.616300
     16 C28          8.0360    -6.6920    -1.2170 cd         1 846       0.389200
     17 C29          7.9350    -7.9320    -1.7540 cc         1 846      -0.172400
     18 C31          3.5300     0.4730     0.9690 c3         1 846      -0.044100
     19 C32          4.2710     0.6380     2.2710 ca         1 846      -0.094300
     20 C33          5.0620    -0.3890     2.7510 ca         1 846      -0.124500
     21 C34          5.7420    -0.2390     3.9450 ca         1 846      -0.126000
     22 C35          5.6300     0.9400     4.6590 ca         1 846      -0.127000
     23 C36          4.8400     1.9670     4.1790 ca         1 846      -0.126000
     24 C37          4.1630     1.8170     2.9830 ca         1 846      -0.124500
     25 C61          0.3290     0.2240     3.1190 c3         1 846      -0.067100
     26 C62         -0.4370     0.3700     4.4090 ca         1 846      -0.091300
     27 C63         -0.0680    -0.3670     5.5190 ca         1 846      -0.121000
     28 C64         -0.7700    -0.2330     6.7020 ca         1 846      -0.127500
     29 C65         -1.8410     0.6390     6.7750 ca         1 846      -0.129000
     30 C66         -2.2090     1.3760     5.6650 ca         1 846      -0.127500
     31 C67         -1.5040     1.2450     4.4840 ca         1 846      -0.121000
     32 C70         -2.8770    -1.3470     0.2890 cx         1 846      -0.158700
     33 C71         -4.3890    -1.3110     0.0610 cx         1 846      -0.130900
     34 C72         -3.4340    -1.2520    -1.1320 cx         1 846      -0.130900
     35 N2           1.3440     0.0000     0.0000 n          1 846      -0.490800
     36 N7          -0.7810    -0.3210     1.0190 n          1 846      -0.484800
     37 N26          4.7680    -5.4920    -2.2270 ns         1 846      -0.519400
     38 N27          7.0210    -5.8620    -1.3570 nd         1 846      -0.726000
     39 O1          -0.5510     0.3270    -1.0340 o          1 846      -0.712500
     40 O4           2.9140    -2.2450     1.0080 oh         1 846      -0.598800
     41 O5           0.7520    -2.8870     3.1170 oh         1 846      -0.606800
     42 O26          5.5880    -3.7300    -1.1540 o          1 846      -0.532100
     43 S29          6.2990    -7.8530    -2.4670 ss         1 846      -0.312300
     44 H21A         1.5200     0.5970    -1.9970 h1         1 846       0.072700
     45 H22          3.0530     0.4130    -1.1340 h1         1 846       0.072700
     46 H3           1.6300     0.6770     1.9510 h1         1 846       0.099700
     47 H4           2.6180    -1.3360     2.8310 h1         1 846       0.064700
     48 H5           0.4880    -2.5060     1.1120 h1         1 846       0.064700
     49 H6          -1.1360    -1.3180     2.8120 h1         1 846       0.091700
     50 H71         -2.3920     0.7450     0.2160 h1         1 846       0.064200
     51 H72         -2.6510     0.1150     1.8480 h1         1 846       0.064200
     52 H21          4.1520    -1.6890    -1.0040 ha         1 846       0.160000
     53 H23          2.4540    -5.0340    -3.0950 ha         1 846       0.116000
     54 H24          0.4090    -3.7230    -3.5060 ha         1 846       0.133000
     55 H25          0.2310    -1.4140    -2.6690 ha         1 846       0.159000
     56 H28          8.9330    -6.3870    -0.6910 h4         1 846       0.042100
     57 H29          8.6480    -8.7480    -1.7500 h4         1 846       0.196000
     58 H311         4.0390    -0.2600     0.3550 hc         1 846       0.068200
     59 H312         3.5000     1.4220     0.4480 hc         1 846       0.068200
     60 H33          5.1490    -1.3130     2.1910 ha         1 846       0.136000
     61 H34          6.3610    -1.0440     4.3220 ha         1 846       0.132000
     62 H35          6.1610     1.0580     5.5960 ha         1 846       0.130000
     63 H36          4.7530     2.8910     4.7380 ha         1 846       0.132000
     64 H37          3.5440     2.6230     2.6070 ha         1 846       0.136000
     65 H611         1.3590    -0.0290     3.3370 hc         1 846       0.068200
     66 H612         0.2940     1.1580     2.5710 hc         1 846       0.068200
     67 H63          0.7710    -1.0500     5.4620 ha         1 846       0.134500
     68 H64         -0.4820    -0.8100     7.5720 ha         1 846       0.129500
     69 H65         -2.3930     0.7430     7.7010 ha         1 846       0.129000
     70 H66         -3.0470     2.0610     5.7230 ha         1 846       0.129500
     71 H67         -1.7920     1.8230     3.6140 ha         1 846       0.134500
     72 H70         -2.4820    -2.3200     0.5570 hc         1 846       0.079700
     73 H711        -4.8780    -0.3790     0.3150 hc         1 846       0.075200
     74 H712        -4.9060    -2.2530     0.2010 hc         1 846       0.075200
     75 H721        -3.3400    -0.2830    -1.6070 hc         1 846       0.075200
     76 H722        -3.3670    -2.1580    -1.7220 hc         1 846       0.075200
     77 HN6          4.0100    -5.9020    -2.7350 hn         1 846       0.341500
     78 HO4          3.1850    -3.0080     1.4920 ho         1 846       0.407000
     79 HO5          0.5940    -3.7610     2.7990 ho         1 846       0.408000
@<TRIPOS>BOND
     1     1    35 1
     2     1    36 1
     3     1    39 2
     4     2     8 1
     5     2    35 1
     6     2    44 1
     7     2    45 1
     8     3     4 1
     9     3    18 1
    10     3    35 1
    11     3    46 1
    12     4     5 1
    13     4    40 1
    14     4    47 1
    15     5     6 1
    16     5    41 1
    17     5    48 1
    18     6    25 1
    19     6    36 1
    20     6    49 1
    21     7    32 1
    22     7    36 1
    23     7    50 1
    24     7    51 1
    25     8     9 ar
    26     8    13 ar
    27     9    10 ar
    28     9    52 1
    29    10    11 ar
    30    10    14 1
    31    11    12 ar
    32    11    53 1
    33    12    13 ar
    34    12    54 1
    35    13    55 1
    36    14    37 1
    37    14    42 2
    38    15    37 1
    39    15    38 2
    40    15    43 1
    41    16    17 2
    42    16    38 1
    43    16    56 1
    44    17    43 1
    45    17    57 1
    46    18    19 1
    47    18    58 1
    48    18    59 1
    49    19    20 ar
    50    19    24 ar
    51    20    21 ar
    52    20    60 1
    53    21    22 ar
    54    21    61 1
    55    22    23 ar
    56    22    62 1
    57    23    24 ar
    58    23    63 1
    59    24    64 1
    60    25    26 1
    61    25    65 1
    62    25    66 1
    63    26    27 ar
    64    26    31 ar
    65    27    28 ar
    66    27    67 1
    67    28    29 ar
    68    28    68 1
    69    29    30 ar
    70    29    69 1
    71    30    31 ar
    72    30    70 1
    73    31    71 1
    74    32    33 1
    75    32    34 1
    76    32    72 1
    77    33    34 1
    78    33    73 1
    79    33    74 1
    80    34    75 1
    81    34    76 1
    82    37    77 1
    83    40    78 1
    84    41    79 1
@<TRIPOS>SUBSTRUCTURE
     1 846         1 TEMP              0 ****  ****    0 ROOT
