@<TRIPOS>MOLECULE
molecule
   42    44     1     0     0
SMALL
bcc


@<TRIPOS>ATOM
      1 C1           0.0000     0.0000     0.0000 ca         1 847       0.001100
      2 C2           1.4010     0.0000     0.0000 ca         1 847      -0.149000
      3 C3           2.0920     0.0000     1.1770 ca         1 847      -0.094000
      4 C4           1.4110    -0.0010     2.3880 ca         1 847      -0.099000
      5 C5           0.0030    -0.0010     2.4070 ca         1 847       0.006000
      6 C6          -0.7000     0.0050     1.2010 ca         1 847      -0.222000
      7 C7          -0.7370     0.0000    -1.2820 ce         1 847      -0.210200
      8 N1          -2.0680     0.0000    -1.2850 nz         1 847      -0.585600
      9 N2          -0.0680     0.0010    -2.4340 nv         1 847      -0.603100
     10 N3           1.8120    -0.0010     3.7070 na         1 847      -0.212600
     11 N4          -0.3810    -0.0010     3.7080 nc         1 847      -0.330600
     12 C8           0.6800    -0.0020     4.4780 cc         1 847       0.180500
     13 C1'          0.6580    -0.0020     5.9550 cd         1 847      -0.054000
     14 C2'         -0.2810     0.7690     6.6430 cd         1 847      -0.055000
     15 C3'         -0.2980     0.7640     8.0210 cc         1 847      -0.028200
     16 CVX         -1.3120     1.5970     8.7620 c3         1 847      -0.067500
     17 CWX         -0.5990     2.5930     9.6400 c          1 847       0.934600
     18 OXX         -0.7790     3.7890     9.4760 o          1 847      -0.630300
     19 OYX          0.1580     2.2040    10.5140 o          1 847      -0.630300
     20 C6X         -2.1850     0.6870     9.6280 c3         1 847      -0.130400
     21 C7X         -3.2760     1.5030    10.2740 c          1 847       0.880600
     22 O8X         -3.3520     2.7550    10.0500 o          1 847      -0.753800
     23 O9X         -4.1240     0.9400    11.0420 o          1 847      -0.753800
     24 C4'          0.6140    -0.0020     8.7280 cc         1 847      -0.040000
     25 C5'          1.5480    -0.7690     8.0590 cd         1 847      -0.092300
     26 C6'          1.5740    -0.7800     6.6720 c          1 847       0.476100
     27 O6'          2.4920    -1.5340     6.0140 o          1 847      -0.584100
     28 Br5'         2.7880    -1.8120     9.0350 br         1 847      -0.043700
     29 HC2          1.9390    -0.0040    -0.9400 ha         1 847       0.117000
     30 HC3          3.1750     0.0000     1.1670 ha         1 847       0.115000
     31 HC6         -1.7830     0.0050     1.2020 ha         1 847       0.103000
     32 HH11        -2.4000    -0.0020    -2.2290 hn         1 847       0.377133
     33 HH12        -2.4040     0.8190    -0.8160 hn         1 847       0.377133
     34 HH21        -0.5660     0.0010    -3.3020 hn         1 847       0.254700
     35 HH22         0.9330     0.0010    -2.4320 hn         1 847       0.254700
     36 HN3          2.7560    -0.0010     4.0400 hn         1 847       0.313700
     37 HC2'        -0.9570     1.4150     6.0950 ha         1 847       0.171000
     38 H31B        -1.9360     2.1250     8.0500 hc         1 847       0.111700
     39 H42A        -2.6290    -0.0840     9.0100 hc         1 847       0.061700
     40 H42B        -1.5760     0.2270    10.3970 hc         1 847       0.061700
     41 HC4'         0.5960     0.0020     9.8110 ha         1 847       0.192000
     42 H13         -2.4030    -0.8160    -0.8110 hn         1 847       0.377133
@<TRIPOS>BOND
     1     1     2 ar  
     2     1     6 ar  
     3     1     7 1   
     4     2     3 ar  
     5     2    29 1   
     6     3     4 ar  
     7     3    30 1   
     8     4     5 ar  
     9     4    10 2   
    10     5     6 ar  
    11     5    11 2   
    12     6    31 1   
    13     7     8 1   
    14     7     9 2   
    15     8    32 1   
    16     8    33 1   
    17     9    34 1   
    18     9    35 1   
    19    10    12 1   
    20    10    36 1   
    21    11    12 1   
    22    12    13 2   
    23    13    14 1   
    24    13    26 1   
    25    14    15 2   
    26    14    37 1   
    27    15    16 1   
    28    15    24 1   
    29    16    17 1   
    30    16    20 1   
    31    16    38 1   
    32    17    18 1   
    33    17    19 1   
    34    20    21 1   
    35    20    39 1   
    36    20    40 1   
    37    21    22 1   
    38    21    23 1   
    39    24    25 2   
    40    24    41 1   
    41    25    26 1   
    42    25    28 1   
    43    26    27 2   
    44    42     8 1   
@<TRIPOS>SUBSTRUCTURE
     1 847         1 TEMP              0 ****  ****    0 ROOT
