@<TRIPOS>MOLECULE
848
   27    28     1     0     0
SMALL
bcc


@<TRIPOS>ATOM
      1 N1           0.0000     0.0000     0.0000 nv         1 848      -0.544200
      2 C2           1.4000     0.0000     0.0000 ca         1 848      -0.005400
      3 C3           2.0950     0.0000     1.2010 ca         1 848      -0.076000
      4 C7           2.0990    -0.0050    -1.2050 ca         1 848       0.138100
      5 C6           3.4830    -0.0040    -1.1990 ca         1 848      -0.212000
      6 C5           4.1700     0.0010     0.0020 ca         1 848      -0.059000
      7 C4           3.4780     0.0010     1.1980 ca         1 848      -0.140000
      8 O8           1.4230    -0.0110    -2.3850 os         1 848      -0.293900
      9 C9           2.2050    -0.0160    -3.5810 c3         1 848       0.265700
     10 C10          1.2910    -0.0210    -4.7790 ca         1 848      -0.231600
     11 C15          0.8650     1.1720    -5.3430 ca         1 848      -0.044000
     12 C14          0.0240     1.1180    -6.4440 ca         1 848      -0.227300
     13 C13         -0.3580    -0.1140    -6.9400 ca         1 848       0.412200
     14 N12          0.0670    -1.2290    -6.3780 nb         1 848      -0.585000
     15 C11          0.8710    -1.2150    -5.3340 ca         1 848       0.428200
     16 HN1         -0.5000    -0.8670     0.0180 hn         1 848       0.271300
     17 HN1A        -0.5000     0.8670     0.0120 hn         1 848       0.271300
     18 H3           1.5550    -0.0000     2.1390 ha         1 848       0.108000
     19 H6           4.0290    -0.0060    -2.1350 ha         1 848       0.118000
     20 H5           5.2540     0.0020     0.0050 ha         1 848       0.100000
     21 H4           4.0190     0.0030     2.1360 ha         1 848       0.104000
     22 H9           2.8300    -0.9000    -3.6000 h1         1 848       0.005700
     23 H9A          2.8300     0.8690    -3.6070 h1         1 848       0.005700
     24 H15          1.1810     2.1230    -4.9330 ha         1 848       0.112000
     25 H14         -0.3290     2.0310    -6.9100 ha         1 848       0.114000
     26 H13         -1.0170    -0.1640    -7.7980 h4         1 848      -0.020900
     27 H11          1.2000    -2.1520    -4.8990 h4         1 848      -0.016900
@<TRIPOS>BOND
     1     1     2 1   
     2     1    16 1   
     3     1    17 1   
     4     2     3 ar  
     5     2     4 ar  
     6     3     7 ar  
     7     3    18 1   
     8     4     5 ar  
     9     4     8 1   
    10     5     6 ar  
    11     5    19 1   
    12     6     7 ar  
    13     6    20 1   
    14     7    21 1   
    15     8     9 1   
    16     9    10 1   
    17     9    22 1   
    18     9    23 1   
    19    10    11 ar  
    20    10    15 ar  
    21    11    12 ar  
    22    11    24 1   
    23    12    13 ar  
    24    12    25 1   
    25    13    14 ar  
    26    13    26 1   
    27    14    15 ar  
    28    15    27 1   
@<TRIPOS>SUBSTRUCTURE
     1 848         1 TEMP              0 ****  ****    0 ROOT
