@<TRIPOS>MOLECULE
molecule
   56    59     1     0     0
SMALL
bcc


@<TRIPOS>ATOM
      1 C1           0.0000     0.0000     0.0000 ca         1 849      -0.064000
      2 C2           1.3660     0.0000     0.0000 ca         1 849      -0.112300
      3 C3           2.0710     0.0000     1.1960 ca         1 849      -0.095000
      4 C4           1.4060     0.0010     2.4040 ca         1 849      -0.148000
      5 C5          -0.6950     0.0010     1.2130 ca         1 849      -0.123800
      6 C6           0.0160     0.0020     2.4290 ca         1 849      -0.023200
      7 N7          -0.9100     0.0020     3.4490 na         1 849      -0.171400
      8 C8          -2.1840     0.0040     2.9220 cc         1 849      -0.022300
      9 C9          -2.1140     0.0010     1.5670 cd         1 849       0.107300
     10 C10         -3.4330     0.0060     3.7110 ca         1 849      -0.079800
     11 C11          2.1140    -0.0010    -1.3080 c3         1 849      -0.015400
     12 C12          2.9940    -1.2510    -1.3920 c3         1 849      -0.117900
     13 C13          3.7970    -1.2170    -2.6950 c3         1 849       0.160300
     14 N14          4.6290    -0.0070    -2.7270 n3         1 849      -0.723600
     15 C15          3.8030     1.2070    -2.6940 c3         1 849       0.160300
     16 C16          3.0010     1.2440    -1.3910 c3         1 849      -0.117900
     17 C17          5.6050    -0.0110    -1.6280 c3         1 849       0.153800
     18 C18          6.6080     1.1260    -1.8340 c3         1 849       0.152800
     19 N19          7.5830     1.1230    -0.7350 n7         1 849      -0.824200
     20 C20          8.5650     2.2030    -0.9010 c3         1 849       0.149100
     21 C21         -4.3030    -1.0920     3.6550 ca         1 849       0.171100
     22 C22         -5.4710    -1.0810     4.4000 ca         1 849      -0.225000
     23 C23         -5.7770     0.0090     5.1930 ca         1 849      -0.078000
     24 C24         -4.9210     1.0950     5.2510 ca         1 849      -0.172000
     25 C25         -3.7510     1.0970     4.5200 ca         1 849      -0.074000
     26 O26         -4.0020    -2.1620     2.8750 os         1 849      -0.312900
     27 C27         -4.9350    -3.2440     2.8690 c3         1 849       0.127700
     28 F28         -3.1570     0.0010     0.7070 f          1 849      -0.146500
     29 H1          -0.5430     0.0000    -0.9370 ha         1 849       0.137000
     30 H3           3.1540    -0.0000     1.1810 ha         1 849       0.135000
     31 H11          1.4110     0.0010    -2.1320 hc         1 849       0.056700
     32 H4           1.9660     0.0010     3.3310 ha         1 849       0.128000
     33 H7          -0.6910     0.0040     4.4250 hn         1 849       0.303700
     34 H25         -3.0830     1.9490     4.5670 ha         1 849       0.140000
     35 H121         2.3680    -2.1350    -1.3780 hc         1 849       0.051950
     36 H122         3.6750    -1.2700    -0.5490 hc         1 849       0.051950
     37 H161         2.3790     2.1310    -1.3770 hc         1 849       0.051950
     38 H162         3.6820     1.2600    -0.5490 hc         1 849       0.051950
     39 H131         3.1160    -1.2070    -3.5370 h1         1 849       0.054450
     40 H132         4.4330    -2.0920    -2.7490 h1         1 849       0.054450
     41 H151         4.4440     2.0790    -2.7470 h1         1 849       0.054450
     42 H152         3.1220     1.2010    -3.5360 h1         1 849       0.054450
     43 H171         6.1300    -0.9580    -1.6140 h1         1 849       0.041700
     44 H172         5.0880     0.1300    -0.6860 h1         1 849       0.041700
     45 H181         7.1250     0.9860    -2.7760 h1         1 849       0.039700
     46 H182         6.0830     2.0740    -1.8480 h1         1 849       0.039700
     47 H19          8.0570     0.2420    -0.7120 hn         1 849       0.349800
     48 H201         9.0950     2.0690    -1.8360 h1         1 849       0.030700
     49 H202         9.2700     2.1790    -0.0790 h1         1 849       0.030700
     50 H203         8.0530     3.1580    -0.9090 h1         1 849       0.030700
     51 H22         -6.1460    -1.9280     4.3600 ha         1 849       0.139000
     52 H23         -6.6930     0.0140     5.7720 ha         1 849       0.132000
     53 H24         -5.1680     1.9440     5.8770 ha         1 849       0.134000
     54 H271        -5.0400    -3.6360     3.8740 h1         1 849       0.043033
     55 H272        -4.5770    -4.0260     2.2120 h1         1 849       0.043033
     56 H273        -5.8970    -2.8890     2.5180 h1         1 849       0.043033
@<TRIPOS>BOND
     1     1     2 ar
     2     1     5 ar
     3     2     3 ar
     4     2    11 1
     5     3     4 ar
     6     4     6 ar
     7     5     6 ar
     8     5     9 1
     9     6     7 1
    10     7     8 1
    11     8     9 2
    12     8    10 1
    13     9    28 1
    14    10    21 ar
    15    10    25 ar
    16    11    12 1
    17    11    16 1
    18    12    13 1
    19    13    14 1
    20    14    15 1
    21    14    17 1
    22    15    16 1
    23    17    18 1
    24    18    19 1
    25    19    20 1
    26    21    22 ar
    27    21    26 1
    28    22    23 ar
    29    23    24 ar
    30    24    25 ar
    31    26    27 1
    32     1    29 1
    33     3    30 1
    34    11    31 1
    35     4    32 1
    36     7    33 1
    37    25    34 1
    38    12    35 1
    39    12    36 1
    40    16    37 1
    41    16    38 1
    42    13    39 1
    43    13    40 1
    44    15    41 1
    45    15    42 1
    46    17    43 1
    47    17    44 1
    48    18    45 1
    49    18    46 1
    50    19    47 1
    51    20    48 1
    52    20    49 1
    53    20    50 1
    54    22    51 1
    55    23    52 1
    56    24    53 1
    57    27    54 1
    58    27    55 1
    59    27    56 1
@<TRIPOS>SUBSTRUCTURE
     1 849         1 TEMP              0 ****  ****    0 ROOT
