@<TRIPOS>MOLECULE
84F
   50    52     1     0     0
SMALL
bcc


@<TRIPOS>ATOM
      1 N1           0.0000     0.0000     0.0000 nj         1 84F      -0.038000
      2 C2           1.4670     0.0000     0.0000 cy         1 84F       0.094000
      3 C3           1.3040     0.0000     1.5240 cy         1 84F      -0.181700
      4 C4          -0.1940    -0.0010     1.3360 c          1 84F       0.653500
      5 O5          -1.1590     0.0010     2.0720 o          1 84F      -0.618500
      6 C6          -0.9170     0.0060    -1.0600 ca         1 84F       0.019600
      7 C7          -0.4610     0.0000    -2.3710 ca         1 84F      -0.289500
      8 C8          -1.3680     0.0050    -3.4200 ca         1 84F       0.192100
      9 C9          -2.7330     0.0160    -3.1590 ca         1 84F       0.017100
     10 C10         -3.1880     0.0210    -1.8450 ca         1 84F       0.192100
     11 C11         -2.2800     0.0100    -0.7970 ca         1 84F      -0.289500
     12 C12          2.0830     1.2610    -0.5520 ca         1 84F      -0.137300
     13 C13          1.3040     2.3890    -0.7270 ca         1 84F      -0.063000
     14 C14          1.8640     3.5470    -1.2340 ca         1 84F      -0.189000
     15 C15          3.2090     3.5790    -1.5670 ca         1 84F       0.134100
     16 C16          3.9930     2.4430    -1.3900 ca         1 84F       0.091100
     17 C17          3.4260     1.2860    -0.8770 ca         1 84F      -0.104000
     18 O18          5.3130     2.4680    -1.7160 oh         1 84F      -0.480100
     19 O19          3.7600     4.7170    -2.0650 os         1 84F      -0.289900
     20 C20          2.8960     5.8440    -2.2200 c3         1 84F       0.239700
     21 O21         -3.6230     0.0230    -4.1880 os         1 84F      -0.306900
     22 C22         -4.0580    -1.2480    -4.6780 c3         1 84F       0.248700
     23 O23         -4.5220     0.0310    -1.5880 os         1 84F      -0.291400
     24 C24         -4.9200     0.0360    -0.2150 c3         1 84F       0.238200
     25 O25         -0.9210     0.0010    -4.7050 os         1 84F      -0.291400
     26 C26          0.4940    -0.0100    -4.8990 c3         1 84F       0.238200
     27 C29          1.8300    -1.2750     2.1870 c3         1 84F       0.033900
     28 H1           1.8920    -0.9210    -0.3820 h1         1 84F       0.054700
     29 H2           1.6650     0.9140     1.9800 hc         1 84F       0.066700
     30 H3           0.6030    -0.0080    -2.5740 ha         1 84F       0.148000
     31 H4          -2.6350     0.0140     0.2260 ha         1 84F       0.148000
     32 H5           0.2530     2.3660    -0.4680 ha         1 84F       0.119000
     33 H6           1.2510     4.4300    -1.3710 ha         1 84F       0.128000
     34 H7           4.0340     0.4000    -0.7380 ha         1 84F       0.116000
     35 H8           5.8310     2.4300    -0.9300 ho         1 84F       0.400000
     36 H9           2.1090     5.6020    -2.9240 h1         1 84F      -0.000300
     37 H10          3.4660     6.6870    -2.5920 h1         1 84F      -0.000300
     38 H11          2.4580     6.0980    -1.2620 h1         1 84F      -0.000300
     39 H12         -5.0860    -1.4170    -4.3810 h1         1 84F      -0.010300
     40 H13         -3.9870    -1.2620    -5.7590 h1         1 84F      -0.010300
     41 H14         -3.4300    -2.0280    -4.2650 h1         1 84F      -0.010300
     42 H15         -4.5620    -0.8650     0.2680 h1         1 84F       0.000033
     43 H16         -4.4980     0.9020     0.2800 h1         1 84F       0.000033
     44 H17         -6.0000     0.0750    -0.1520 h1         1 84F       0.000033
     45 H18          0.9290     0.8680    -4.4370 h1         1 84F       0.000033
     46 H19          0.7130    -0.0060    -5.9600 h1         1 84F       0.000033
     47 H20          0.9140    -0.9010    -4.4470 h1         1 84F       0.000033
     48 H21          1.5470    -1.2810     3.2330 hc         1 84F       0.009700
     49 H22          1.4070    -2.1410     1.6930 hc         1 84F       0.009700
     50 H23          2.9100    -1.3050     2.1060 hc         1 84F       0.009700
@<TRIPOS>BOND
     1     1     2 1   
     2     1     4 1   
     3     1     6 1   
     4     2     3 1   
     5     2    12 1   
     6     2    28 1   
     7     3     4 1   
     8     3    27 1   
     9     3    29 1   
    10     4     5 2   
    11     6     7 ar  
    12     6    11 ar  
    13     7     8 ar  
    14     7    30 1   
    15     8     9 ar  
    16     8    25 1   
    17     9    10 ar  
    18     9    21 1   
    19    10    11 ar  
    20    10    23 1   
    21    11    31 1   
    22    12    13 ar  
    23    12    17 ar  
    24    13    14 ar  
    25    13    32 1   
    26    14    15 ar  
    27    14    33 1   
    28    15    16 ar  
    29    15    19 1   
    30    16    17 ar  
    31    16    18 1   
    32    17    34 1   
    33    18    35 1   
    34    19    20 1   
    35    20    36 1   
    36    20    37 1   
    37    20    38 1   
    38    21    22 1   
    39    22    39 1   
    40    22    40 1   
    41    22    41 1   
    42    23    24 1   
    43    24    42 1   
    44    24    43 1   
    45    24    44 1   
    46    25    26 1   
    47    26    45 1   
    48    26    46 1   
    49    26    47 1   
    50    27    48 1   
    51    27    49 1   
    52    27    50 1   
@<TRIPOS>SUBSTRUCTURE
     1 84F         1 TEMP              0 ****  ****    0 ROOT
