@<TRIPOS>MOLECULE
molecule
   50    52     1     0     0
SMALL
bcc


@<TRIPOS>ATOM
      1 N1           0.0000     0.0000     0.0000 nj         1 84F      -0.394000
      2 C2           1.4670     0.0000     0.0000 cy         1 84F       0.165000
      3 C3           1.3040     0.0000     1.5240 cy         1 84F      -0.187700
      4 C4          -0.1940    -0.0010     1.3360 c          1 84F       0.726500
      5 O5          -1.1590     0.0010     2.0720 o          1 84F      -0.580500
      6 C6          -0.9170     0.0060    -1.0600 ca         1 84F       0.133600
      7 C7          -0.4610     0.0000    -2.3710 ca         1 84F      -0.292500
      8 C8          -1.3680     0.0050    -3.4200 ca         1 84F       0.182600
      9 C9          -2.7330     0.0160    -3.1590 ca         1 84F       0.020100
     10 C10         -3.1880     0.0210    -1.8450 ca         1 84F       0.182600
     11 C11         -2.2800     0.0100    -0.7970 ca         1 84F      -0.292500
     12 C12          2.0830     1.2610    -0.5520 ca         1 84F      -0.134300
     13 C13          1.3040     2.3890    -0.7270 ca         1 84F      -0.076000
     14 C14          1.8640     3.5470    -1.2340 ca         1 84F      -0.208000
     15 C15          3.2090     3.5790    -1.5670 ca         1 84F       0.135100
     16 C16          3.9930     2.4430    -1.3900 ca         1 84F       0.077100
     17 C17          3.4260     1.2860    -0.8770 ca         1 84F      -0.124000
     18 O18          5.3130     2.4680    -1.7160 oh         1 84F      -0.500100
     19 O19          3.7600     4.7170    -2.0650 os         1 84F      -0.310900
     20 C20          2.8960     5.8440    -2.2200 c3         1 84F       0.124700
     21 O21         -3.6230     0.0230    -4.1880 os         1 84F      -0.321900
     22 C22         -4.0580    -1.2480    -4.6780 c3         1 84F       0.133700
     23 O23         -4.5220     0.0310    -1.5880 os         1 84F      -0.309900
     24 C24         -4.9200     0.0360    -0.2150 c3         1 84F       0.125200
     25 O25         -0.9210     0.0010    -4.7050 os         1 84F      -0.309900
     26 C26          0.4940    -0.0100    -4.8990 c3         1 84F       0.125200
     27 C29          1.8300    -1.2750     2.1870 c3         1 84F      -0.075100
     28 H1           1.8920    -0.9210    -0.3820 h1         1 84F       0.084700
     29 H2           1.6650     0.9140     1.9800 hc         1 84F       0.095700
     30 H3           0.6030    -0.0080    -2.5740 ha         1 84F       0.155500
     31 H4          -2.6350     0.0140     0.2260 ha         1 84F       0.155500
     32 H5           0.2530     2.3660    -0.4680 ha         1 84F       0.150000
     33 H6           1.2510     4.4300    -1.3710 ha         1 84F       0.147000
     34 H7           4.0340     0.4000    -0.7380 ha         1 84F       0.143000
     35 H8           5.8310     2.4300    -0.9300 ho         1 84F       0.416000
     36 H9           2.1090     5.6020    -2.9240 h1         1 84F       0.044033
     37 H10          3.4660     6.6870    -2.5920 h1         1 84F       0.044033
     38 H11          2.4580     6.0980    -1.2620 h1         1 84F       0.044033
     39 H12         -5.0860    -1.4170    -4.3810 h1         1 84F       0.033033
     40 H13         -3.9870    -1.2620    -5.7590 h1         1 84F       0.033033
     41 H14         -3.4300    -2.0280    -4.2650 h1         1 84F       0.033033
     42 H15         -4.5620    -0.8650     0.2680 h1         1 84F       0.044533
     43 H16         -4.4980     0.9020     0.2800 h1         1 84F       0.044533
     44 H17         -6.0000     0.0750    -0.1520 h1         1 84F       0.044533
     45 H18          0.9290     0.8680    -4.4370 h1         1 84F       0.044533
     46 H19          0.7130    -0.0060    -5.9600 h1         1 84F       0.044533
     47 H20          0.9140    -0.9010    -4.4470 h1         1 84F       0.044533
     48 H21          1.5470    -1.2810     3.2330 hc         1 84F       0.047367
     49 H22          1.4070    -2.1410     1.6930 hc         1 84F       0.047367
     50 H23          2.9100    -1.3050     2.1060 hc         1 84F       0.047367
@<TRIPOS>BOND
     1    18    16 1   
     2    19    20 1   
     3    19    15 1   
     4    16    15 ar  
     5    16    17 ar  
     6    15    14 ar  
     7    17    12 ar  
     8    14    13 ar  
     9    12    13 ar  
    10    12     2 1   
    11    27     3 1   
    12     2     3 1   
    13     2     1 1   
    14    26    25 1   
    15     3     4 1   
    16     1     4 1   
    17     1     6 1   
    18     7     6 ar  
    19     7     8 ar  
    20    25     8 1   
    21     4     5 2   
    22     6    11 ar  
    23     8     9 ar  
    24    11    10 ar  
    25     9    10 ar  
    26     9    21 1   
    27    10    23 1   
    28    21    22 1   
    29    23    24 1   
    30     2    28 1   
    31     3    29 1   
    32     7    30 1   
    33    11    31 1   
    34    13    32 1   
    35    14    33 1   
    36    17    34 1   
    37    18    35 1   
    38    20    36 1   
    39    20    37 1   
    40    20    38 1   
    41    22    39 1   
    42    22    40 1   
    43    22    41 1   
    44    24    42 1   
    45    24    43 1   
    46    24    44 1   
    47    26    45 1   
    48    26    46 1   
    49    26    47 1   
    50    27    48 1   
    51    27    49 1   
    52    27    50 1   
@<TRIPOS>SUBSTRUCTURE
     1 84F         1 TEMP              0 ****  ****    0 ROOT
