@<TRIPOS>MOLECULE
molecule
   42    44     1     0     0
SMALL
bcc


@<TRIPOS>ATOM
      1 CAY          1.4690     0.0000     0.0000 c3         1 84J       0.199800
      2 CAA          1.9780     0.0000     1.4430 c3         1 84J      -0.108100
      3 NAQ          0.0000     0.0000     0.0000 n7         1 84J      -0.811200
      4 CAZ         -0.5260     1.3710     0.0500 c3         1 84J       0.069600
      5 PBA         -1.2200     1.6940     1.7050 p5         1 84J       0.976700
      6 OAE         -2.4070     0.8360     1.9190 o          1 84J      -0.873500
      7 OAF         -0.1120     1.3660     2.8250 o          1 84J      -0.873500
      8 OAB         -1.6510     3.2420     1.8140 o          1 84J      -0.873500
      9 CAV         -1.6060     1.5330    -0.9870 ca         1 84J       0.018400
     10 CAX         -2.0400     2.8160    -1.3580 ca         1 84J       0.306300
     11 NAP         -1.5060     3.9120    -0.8000 nb         1 84J      -0.520000
     12 CAT         -1.9290     5.1030    -1.1640 ca         1 84J       0.490300
     13 OAD         -1.3890     6.2100    -0.6010 oh         1 84J      -0.626300
     14 CAS         -2.9420     5.2360    -2.1390 ca         1 84J       0.476300
     15 OAC         -3.3670     6.4710    -2.5040 oh         1 84J      -0.633300
     16 NAO         -3.4750     4.1700    -2.6960 nb         1 84J      -0.753000
     17 CAW         -3.0550     2.9500    -2.3360 ca         1 84J       0.326300
     18 CAN         -3.6090     1.7960    -2.9150 ca         1 84J      -0.251300
     19 CAH         -3.1640     0.5670    -2.5320 ca         1 84J      -0.096000
     20 CAK         -2.1610     0.4370    -1.5740 ca         1 84J      -0.150000
     21 CAL          1.3420    -2.4470    -0.5150 ca         1 84J      -0.120000
     22 CAI          1.8030    -3.5750    -1.1660 ca         1 84J      -0.116500
     23 CAR          2.8960    -3.4900    -2.0090 ca         1 84J      -0.040900
     24 BrAG         3.5250    -5.0330    -2.9010 br         1 84J      -0.165100
     25 CAJ          3.5270    -2.2740    -2.2000 ca         1 84J      -0.116500
     26 CAM          3.0670    -1.1450    -1.5490 ca         1 84J      -0.120000
     27 CAU          1.9710    -1.2310    -0.7100 ca         1 84J      -0.010300
     28 H1           1.8300     0.8840    -0.5110 h1         1 84J       0.054700
     29 H2           2.9260    -0.5220     1.4920 hc         1 84J       0.052033
     30 H3           1.2580    -0.4990     2.0800 hc         1 84J       0.052033
     31 H4           2.1110     1.0210     1.7790 hc         1 84J       0.052033
     32 H5          -0.3340    -0.5150     0.7910 hn         1 84J       0.377800
     33 H7           0.2740     2.0730    -0.1490 h1         1 84J       0.071700
     34 H12         -4.3900     1.8830    -3.6610 ha         1 84J       0.109000
     35 H13         -3.5890    -0.3210    -2.9840 ha         1 84J       0.098000
     36 H14         -1.8240    -0.5510    -1.2860 ha         1 84J       0.151000
     37 H15          0.5010    -2.5190     0.1640 ha         1 84J       0.147000
     38 H16          1.3040    -4.5260    -1.0210 ha         1 84J       0.122500
     39 H17          4.3810    -2.2060    -2.8630 ha         1 84J       0.122500
     40 H18          3.5660    -0.1950    -1.6930 ha         1 84J       0.147000
     41 H6          -2.0050     6.5880     0.0040 ho         1 84J       0.429000
     42 H10         -3.4030     6.5260    -3.4450 ho         1 84J       0.408000
@<TRIPOS>BOND
     1     6     5 1   
     2     7     5 1   
     3     8     5 1   
     4     5     4 1   
     5    13    12 1   
     6    12    11 ar  
     7    12    14 ar  
     8    11    10 ar  
     9     4     3 1   
    10     4     9 1   
    11    15    14 1   
    12    14    16 ar  
    13    10     9 ar  
    14    10    17 ar  
    15     3     1 1   
    16     9    20 ar  
    17    16    17 ar  
    18    17    18 ar  
    19    20    19 ar  
    20    18    19 ar  
    21    26    25 ar  
    22    26    27 ar  
    23    25    23 ar  
    24     1    27 1   
    25     1     2 1   
    26    27    21 ar  
    27    24    23 1   
    28    23    22 ar  
    29    21    22 ar  
    30     1    28 1   
    31     2    29 1   
    32     2    30 1   
    33     2    31 1   
    34     3    32 1   
    35     4    33 1   
    36    18    34 1   
    37    19    35 1   
    38    20    36 1   
    39    21    37 1   
    40    22    38 1   
    41    25    39 1   
    42    26    40 1   
    43    13    41 1   
    44    15    42 1   
@<TRIPOS>SUBSTRUCTURE
     1 84J         1 TEMP              0 ****  ****    0 ROOT
