@<TRIPOS>MOLECULE
molecule
   38    42     1     0     0
SMALL
bcc


@<TRIPOS>ATOM
      1 C4           0.0000     0.0000     0.0000 cc         1 84M      -0.062300
      2 C5          -2.0050    -0.0060     0.8740 cc         1 84M       0.266700
      3 C6          -7.1460    -0.0270     0.6810 cd         1 84M      -0.011000
      4 C7           1.4090     0.0000     0.0000 cc         1 84M      -0.079000
      5 C8          -6.0550    -0.0210     1.4950 cc         1 84M      -0.259300
      6 C10          1.3500    -0.0000     2.3940 cc         1 84M      -0.150000
      7 C13         -6.8820    -0.0610    -5.2450 c          1 84M       0.698100
      8 C15         -6.5130    -0.0750    -7.8160 cx         1 84M      -0.107400
      9 C1          -5.8030    -0.0440    -2.5840 cd         1 84M      -0.159100
     10 C2          -7.1310    -0.0490    -2.8780 cc         1 84M       0.182200
     11 C3          -6.9630    -0.0360    -0.7150 cd         1 84M      -0.090300
     12 C9           2.0740     0.0000     1.1870 cc         1 84M      -0.121000
     13 C11          0.0030     0.0050     2.3820 cd         1 84M      -0.076300
     14 C12         -4.7620    -0.0170     0.9390 cc         1 84M       0.481600
     15 C14         -7.3070     1.1890    -7.4810 cx         1 84M      -0.107400
     16 C16         -7.4790    -0.0700    -6.6300 cx         1 84M      -0.234700
     17 N17         -7.8180    -0.0430    -1.7310 nc         1 84M      -0.323600
     18 N18         -0.9090    -0.0060    -0.9580 nd         1 84M      -0.084000
     19 N19         -2.0860    -0.0090    -0.4380 nd         1 84M      -0.288700
     20 N20         -4.5910    -0.0190    -0.3630 nd         1 84M      -0.420800
     21 N21         -5.6920    -0.0360    -1.2260 na         1 84M       0.200200
     22 N22         -0.6800    -0.0010     1.1980 na         1 84M      -0.042200
     23 O24         -5.6770    -0.0580    -5.1040 o          1 84M      -0.600100
     24 S25         -3.3570    -0.0090     2.0030 ss         1 84M      -0.130500
     25 H1          -8.1430    -0.0290     1.1030 ha         1 84M       0.164000
     26 H2           1.9570     0.0000    -0.9350 ha         1 84M       0.167000
     27 H3          -6.1820    -0.0190     2.5710 ha         1 84M       0.151000
     28 H4           1.8800    -0.0000     3.3390 ha         1 84M       0.154000
     29 H6          -5.4600    -0.0470    -7.5610 hc         1 84M       0.085950
     30 H7          -4.9870    -0.0470    -3.2960 h4         1 84M       0.239000
     31 H8           3.1570    -0.0040     1.2030 ha         1 84M       0.148000
     32 H9          -0.5430     0.0040     3.3180 h4         1 84M       0.166000
     33 H10         -6.7390     1.9900    -7.0220 hc         1 84M       0.085950
     34 H11         -8.1270     1.4170    -8.1510 hc         1 84M       0.085950
     35 H12         -8.4050    -0.6070    -6.7970 hc         1 84M       0.089700
     36 N23         -7.6870    -0.0560    -4.1650 ns         1 84M      -0.440100
     37 H5          -6.8480    -0.6200    -8.6900 hc         1 84M       0.085950
     38 H13         -8.6800    -0.0970    -4.2810 hn         1 84M       0.337500
@<TRIPOS>BOND
     1    15     8 1
     2    15    16 1
     3     8    16 1
     4    16     7 1
     5     7    36 1
     6     7    23 2
     7    36    10 1
     8    10    17 1
     9    10     9 2
    10    17    11 2
    11     9    21 1
    12    12     6 1
    13    12     4 2
    14    11    21 1
    15    11     3 1
    16     6    13 2
    17     4     1 1
    18    21    20 1
    19     3     5 2
    20    13    22 1
    21     1    22 1
    22     1    18 2
    23    20    14 2
    24    22     2 1
    25     5    14 1
    26    18    19 1
    27    14    24 1
    28     2    19 2
    29     2    24 1
    30     3    25 1
    31     4    26 1
    32     5    27 1
    33     6    28 1
    34     8    37 1
    35     8    29 1
    36     9    30 1
    37    12    31 1
    38    13    32 1
    39    15    33 1
    40    15    34 1
    41    16    35 1
    42    36    38 1
@<TRIPOS>SUBSTRUCTURE
     1 84M         1 TEMP              0 ****  ****    0 ROOT
