@<TRIPOS>MOLECULE
84M
   38    42     1     0     0
SMALL
bcc


@<TRIPOS>ATOM
      1 C4           0.0000     0.0000     0.0000 cc         1 84M      -0.270300
      2 C5          -2.0050    -0.0060     0.8740 cc         1 84M       0.095700
      3 C6          -7.1460    -0.0270     0.6810 cc         1 84M       0.039000
      4 C7           1.4090     0.0000     0.0000 cc         1 84M      -0.014000
      5 C8          -6.0550    -0.0210     1.4950 cd         1 84M      -0.254300
      6 C10          1.3500    -0.0000     2.3940 cd         1 84M      -0.074000
      7 C13         -6.8820    -0.0610    -5.2450 c          1 84M       0.596100
      8 C15         -6.5130    -0.0750    -7.8160 cx         1 84M      -0.049400
      9 C1          -5.8030    -0.0440    -2.5840 cc         1 84M      -0.352100
     10 C2          -7.1310    -0.0490    -2.8780 cd         1 84M       0.021200
     11 C3          -6.9630    -0.0360    -0.7150 cc         1 84M      -0.298300
     12 C9           2.0740     0.0000     1.1870 cd         1 84M      -0.125000
     13 C11          0.0030     0.0050     2.3820 cc         1 84M      -0.266300
     14 C12         -4.7620    -0.0170     0.9390 cd         1 84M       0.578600
     15 C14         -7.3070     1.1890    -7.4810 cx         1 84M      -0.049400
     16 C16         -7.4790    -0.0700    -6.6300 cx         1 84M      -0.217700
     17 N17         -7.8180    -0.0430    -1.7310 nd         1 84M      -0.241600
     18 N18         -0.9090    -0.0060    -0.9580 nd         1 84M      -0.070000
     19 N19         -2.0860    -0.0090    -0.4380 nd         1 84M      -0.252700
     20 N20         -4.5910    -0.0190    -0.3630 nc         1 84M      -0.566800
     21 N21         -5.6920    -0.0360    -1.2260 na         1 84M       0.711200
     22 N22         -0.6800    -0.0010     1.1980 na         1 84M       0.531800
     23 O24         -5.6770    -0.0580    -5.1040 o          1 84M      -0.638100
     24 S25         -3.3570    -0.0090     2.0030 ss         1 84M      -0.294500
     25 H1          -8.1430    -0.0290     1.1030 ha         1 84M       0.124000
     26 H2           1.9570     0.0000    -0.9350 ha         1 84M       0.129000
     27 H3          -6.1820    -0.0190     2.5710 ha         1 84M       0.133000
     28 H4           1.8800    -0.0000     3.3390 ha         1 84M       0.120000
     29 H6          -5.4600    -0.0470    -7.5610 hc         1 84M       0.052450
     30 H7          -4.9870    -0.0470    -3.2960 h4         1 84M       0.223000
     31 H8           3.1570    -0.0040     1.2030 ha         1 84M       0.120000
     32 H9          -0.5430     0.0040     3.3180 h4         1 84M       0.148000
     33 H10         -6.7390     1.9900    -7.0220 hc         1 84M       0.052450
     34 H11         -8.1270     1.4170    -8.1510 hc         1 84M       0.052450
     35 H12         -8.4050    -0.6070    -6.7970 hc         1 84M       0.063700
     36 N23         -7.6870    -0.0560    -4.1650 ns         1 84M       0.022900
     37 H5          -6.8480    -0.6200    -8.6900 hc         1 84M       0.052450
     38 H13         -8.6800    -0.0970    -4.2810 hn         1 84M       0.169500
@<TRIPOS>BOND
     1     1     4 1   
     2     1    18 2   
     3     1    22 1   
     4     2    19 2   
     5     2    22 1   
     6     2    24 1   
     7     3     5 2   
     8     3    11 1   
     9     3    25 1   
    10     4    12 2   
    11     4    26 1   
    12     5    14 1   
    13     5    27 1   
    14     6    12 1   
    15     6    13 2   
    16     6    28 1   
    17     7    16 1   
    18     7    23 2   
    19     7    36 1   
    20     8    15 1   
    21     8    16 1   
    22     8    29 1   
    23     8    37 1   
    24     9    10 2   
    25     9    21 1   
    26     9    30 1   
    27    10    17 1   
    28    10    36 1   
    29    11    17 2   
    30    11    21 1   
    31    12    31 1   
    32    13    22 1   
    33    13    32 1   
    34    14    20 2   
    35    14    24 1   
    36    15    16 1   
    37    15    33 1   
    38    15    34 1   
    39    16    35 1   
    40    18    19 1   
    41    20    21 1   
    42    36    38 1   
@<TRIPOS>SUBSTRUCTURE
     1 84M         1 TEMP              0 ****  ****    0 ROOT
