@<TRIPOS>MOLECULE
84P
   50    55     1     0     0
SMALL
bcc


@<TRIPOS>ATOM
      1 C4           0.0000     0.0000     0.0000 cc         1 84P       0.408200
      2 C5           1.8210     0.0000     1.3000 cd         1 84P      -0.235300
      3 C6           1.5020     4.9200    -5.3560 cc         1 84P      -0.336100
      4 C7           2.2860     0.0000    -1.1980 ca         1 84P       0.074000
      5 C8           1.4080     0.0000     0.0000 cc         1 84P      -0.275300
      6 C10          2.5500     0.0000    -3.5820 ca         1 84P      -0.194200
      7 C13         -1.0830     2.9210    -6.6900 cc         1 84P       0.045000
      8 C15          0.5650     1.4060    -5.8420 cd         1 84P       0.398600
      9 C17          3.9860     9.4820    -3.7200 cx         1 84P      -0.062400
     10 C1           3.6760    -0.0060    -1.0440 ca         1 84P      -0.141000
     11 C2           4.4950    -0.0110    -2.1330 ca         1 84P      -0.001000
     12 C3           1.7230     0.0000    -2.4670 ca         1 84P      -0.123000
     13 C9           3.9480    -0.0100    -3.4240 ca         1 84P      -0.020600
     14 C11          0.6570     5.8930    -5.7930 cd         1 84P       0.042200
     15 C12         -0.2720     3.9910    -6.2720 cc         1 84P      -0.294300
     16 C14         -0.6620     1.6440    -6.4720 cd         1 84P      -0.282300
     17 C16          1.9930     7.7390    -5.1020 c          1 84P       0.525100
     18 C18          4.1750     9.8760    -5.1870 cx         1 84P      -0.062400
     19 C19          2.8260     9.3330    -4.7080 cx         1 84P      -0.072700
     20 N22         -0.4050     0.0060     1.2420 nd         1 84P      -0.648800
     21 N23          4.4990    -0.0140    -4.6550 nc         1 84P      -0.126400
     22 N24         -0.4110     5.3080    -6.3450 nd         1 84P      -0.240600
     23 N25          3.5810    -0.0120    -5.5550 nd         1 84P      -0.318400
     24 N26          1.3240     2.3980    -5.4520 nc         1 84P      -0.591800
     25 N27          0.9240     3.7220    -5.6540 na         1 84P       0.687200
     26 N28          0.7180     0.0030     2.0770 na         1 84P       0.496400
     27 N29          2.3210    -0.0050    -4.9390 na         1 84P       0.459900
     28 N30          0.8690     7.2740    -5.6840 ns         1 84P       0.056900
     29 O31          2.4360     6.6980    -4.6640 o          1 84P      -0.681100
     30 H1          -0.6360     0.0000    -0.8770 h4         1 84P       0.005100
     31 H2           2.8480     0.0000     1.6460 h4         1 84P       0.151000
     32 H3           2.4550     5.0700    -4.8640 h4         1 84P       0.236000
     33 H4          -2.0320     3.1100    -7.1780 ha         1 84P       0.123000
     34 H6           3.9030    10.3060    -3.0220 hc         1 84P       0.052450
     35 H12          4.1060    -0.0060    -0.0500 ha         1 84P       0.108000
     36 H13          5.5700    -0.0150    -2.0020 ha         1 84P       0.110000
     37 H14          0.6540    -0.1240    -2.5860 ha         1 84P       0.110000
     38 H15         -1.2780     0.8110    -6.7870 ha         1 84P       0.126000
     39 H16          4.2070    10.9400    -5.3850 hc         1 84P       0.052450
     40 H17          4.7690     9.1920    -5.7820 hc         1 84P       0.052450
     41 H18          2.0480    10.0800    -4.6070 hc         1 84P       0.034700
     42 H19          0.1710     7.9140    -6.0080 hn         1 84P       0.140500
     43 C20          0.7000     0.0040     3.5420 c3         1 84P       0.022600
     44 C21          1.0170    -0.0120    -5.6080 c3         1 84P      -0.027000
     45 H5           4.4650     8.5580    -3.4190 hc         1 84P       0.052450
     46 H7           1.2180     0.8820     3.9090 h1         1 84P       0.022700
     47 H8          -0.3250     0.0180     3.8900 h1         1 84P       0.022700
     48 H9           1.1950    -0.8860     3.9090 h1         1 84P       0.022700
     49 H10          1.1010    -0.5260    -6.5580 h1         1 84P       0.047700
     50 H11          0.2940    -0.5240    -4.9840 h1         1 84P       0.047700
@<TRIPOS>BOND
     1     1     5 1   
     2     1    20 2   
     3     1    30 1   
     4     2     5 2   
     5     2    26 1   
     6     2    31 1   
     7     3    14 2   
     8     3    25 1   
     9     3    32 1   
    10     4     5 1   
    11     4    10 ar  
    12     4    12 ar  
    13     6    12 ar  
    14     6    13 ar  
    15     6    27 1   
    16     7    15 1   
    17     7    16 2   
    18     7    33 1   
    19     8    16 1   
    20     8    24 2   
    21     8    44 1   
    22     9    18 1   
    23     9    19 1   
    24     9    34 1   
    25     9    45 1   
    26    10    11 ar  
    27    10    35 1   
    28    11    13 ar  
    29    11    36 1   
    30    12    37 1   
    31    13    21 1   
    32    14    22 1   
    33    14    28 1   
    34    15    22 2   
    35    15    25 1   
    36    16    38 1   
    37    17    19 1   
    38    17    28 1   
    39    17    29 2   
    40    18    19 1   
    41    18    39 1   
    42    18    40 1   
    43    19    41 1   
    44    20    26 1   
    45    21    23 2   
    46    23    27 1   
    47    24    25 1   
    48    26    43 1   
    49    27    44 1   
    50    28    42 1   
    51    43    46 1   
    52    43    47 1   
    53    43    48 1   
    54    44    49 1   
    55    44    50 1   
@<TRIPOS>SUBSTRUCTURE
     1 84P         1 TEMP              0 ****  ****    0 ROOT
