@<TRIPOS>MOLECULE
molecule
   50    55     1     0     0
SMALL
bcc


@<TRIPOS>ATOM
      1 C4           0.0000     0.0000     0.0000 cc         1 84P       0.350200
      2 C5           1.8210     0.0000     1.3000 cd         1 84P      -0.091300
      3 C6           1.5020     4.9200    -5.3560 cd         1 84P      -0.135100
      4 C7           2.2860     0.0000    -1.1980 ca         1 84P       0.061000
      5 C8           1.4080     0.0000     0.0000 cc         1 84P      -0.271300
      6 C10          2.5500     0.0000    -3.5820 ca         1 84P      -0.045200
      7 C13         -1.0830     2.9210    -6.6900 cd         1 84P      -0.011000
      8 C15          0.5650     1.4060    -5.8420 cc         1 84P       0.364600
      9 C17          3.9860     9.4820    -3.7200 cx         1 84P      -0.115400
     10 C1           3.6760    -0.0060    -1.0440 ca         1 84P      -0.160000
     11 C2           4.4950    -0.0110    -2.1330 ca         1 84P      -0.039000
     12 C3           1.7230     0.0000    -2.4670 ca         1 84P      -0.149000
     13 C9           3.9480    -0.0100    -3.4240 ca         1 84P       0.010400
     14 C11          0.6570     5.8930    -5.7930 cc         1 84P       0.208200
     15 C12         -0.2720     3.9910    -6.2720 cd         1 84P      -0.090300
     16 C14         -0.6620     1.6440    -6.4720 cc         1 84P      -0.282300
     17 C16          1.9930     7.7390    -5.1020 c          1 84P       0.621100
     18 C18          4.1750     9.8760    -5.1870 cx         1 84P      -0.115400
     19 C19          2.8260     9.3330    -4.7080 cx         1 84P      -0.102700
     20 N22         -0.4050     0.0060     1.2420 nd         1 84P      -0.509800
     21 N23          4.4990    -0.0140    -4.6550 nc         1 84P      -0.207400
     22 N24         -0.4110     5.3080    -6.3450 nc         1 84P      -0.324600
     23 N25          3.5810    -0.0120    -5.5550 nd         1 84P      -0.135400
     24 N26          1.3240     2.3980    -5.4520 nd         1 84P      -0.444800
     25 N27          0.9240     3.7220    -5.6540 na         1 84P       0.184200
     26 N28          0.7180     0.0030     2.0770 na         1 84P       0.070400
     27 N29          2.3210    -0.0050    -4.9390 na         1 84P       0.048900
     28 N30          0.8690     7.2740    -5.6840 ns         1 84P      -0.429100
     29 O31          2.4360     6.6980    -4.6640 o          1 84P      -0.638100
     30 H1          -0.6360     0.0000    -0.8770 h4         1 84P       0.050100
     31 H2           2.8480     0.0000     1.6460 h4         1 84P       0.175000
     32 H3           2.4550     5.0700    -4.8640 h4         1 84P       0.247000
     33 H4          -2.0320     3.1100    -7.1780 ha         1 84P       0.162000
     34 H6           3.9030    10.3060    -3.0220 hc         1 84P       0.088950
     35 H12          4.1060    -0.0060    -0.0500 ha         1 84P       0.132000
     36 H13          5.5700    -0.0150    -2.0020 ha         1 84P       0.145000
     37 H14          0.6540    -0.1240    -2.5860 ha         1 84P       0.131000
     38 H15         -1.2780     0.8110    -6.7870 ha         1 84P       0.145000
     39 H16          4.2070    10.9400    -5.3850 hc         1 84P       0.088950
     40 H17          4.7690     9.1920    -5.7820 hc         1 84P       0.088950
     41 H18          2.0480    10.0800    -4.6070 hc         1 84P       0.077700
     42 H19          0.1710     7.9140    -6.0080 hn         1 84P       0.306500
     43 C20          0.7000     0.0040     3.5420 c3         1 84P       0.062600
     44 C21          1.0170    -0.0120    -5.6080 c3         1 84P       0.050000
     45 H5           4.4650     8.5580    -3.4190 hc         1 84P       0.088950
     46 H7           1.2180     0.8820     3.9090 h1         1 84P       0.057033
     47 H8          -0.3250     0.0180     3.8900 h1         1 84P       0.057033
     48 H9           1.1950    -0.8860     3.9090 h1         1 84P       0.057033
     49 H10          1.1010    -0.5260    -6.5580 h1         1 84P       0.085200
     50 H11          0.2940    -0.5240    -4.9840 h1         1 84P       0.085200
@<TRIPOS>BOND
     1     9    18 1
     2     9    19 1
     3    18    19 1
     4    19    17 1
     5    17    29 2
     6    17    28 1
     7    28    14 1
     8    43    26 1
     9    26     2 1
    10    26    20 1
    11    14    22 1
    12    14     3 2
    13     2     5 2
    14    22    15 2
    15    20     1 2
    16     3    25 1
    17     5     1 1
    18     5     4 1
    19    10     4 ar
    20    10    11 ar
    21    15    25 1
    22    15     7 1
    23     4    12 ar
    24    25    24 1
    25    11    13 ar
    26     7    16 2
    27    12     6 ar
    28    13     6 ar
    29    13    21 1
    30    24     8 2
    31     6    27 1
    32    16     8 1
    33    21    23 2
    34     8    44 1
    35    27    23 1
    36    27    44 1
    37     1    30 1
    38     2    31 1
    39     3    32 1
    40     7    33 1
    41     9    45 1
    42     9    34 1
    43    43    46 1
    44    43    47 1
    45    43    48 1
    46    44    49 1
    47    44    50 1
    48    10    35 1
    49    11    36 1
    50    12    37 1
    51    16    38 1
    52    18    39 1
    53    18    40 1
    54    19    41 1
    55    28    42 1
@<TRIPOS>SUBSTRUCTURE
     1 84P         1 TEMP              0 ****  ****    0 ROOT
