@<TRIPOS>MOLECULE
molecule
   39    42     1     0     0
SMALL
bcc


@<TRIPOS>ATOM
      1 C32          0.0000     0.0000     0.0000 ca         1 84R      -0.152000
      2 C34          1.3870     0.0000     0.0000 ca         1 84R       0.092100
      3 C26          1.3850     0.0000     2.4070 cp         1 84R      -0.129500
      4 C21          1.5300     0.0000     7.3110 cc         1 84R      -0.253800
      5 C15          4.1540    -0.0010     4.7910 ca         1 84R       0.697200
      6 O01          8.0720    -1.0460     4.1420 os         1 84R      -0.422600
      7 C02          7.6120    -1.0760     5.4960 c3         1 84R       0.135400
      8 C05          6.0820    -1.1460     5.5070 c3         1 84R       0.130300
      9 N08          5.5390    -0.0020     4.7590 nh         1 84R      -0.696300
     10 C09          6.0340    -0.0030     3.3750 c3         1 84R       0.130300
     11 C12          7.5630     0.0550     3.3850 c3         1 84R       0.135400
     12 C16          3.4690    -0.0010     6.0200 ca         1 84R      -0.295700
     13 C17          2.0710     0.0000     6.0150 ca         1 84R       0.506100
     14 N18          1.4440     0.0010     4.8180 nb         1 84R      -0.730000
     15 C19          2.1260     0.0000     3.6920 cp         1 84R       0.771500
     16 N20          3.4550    -0.0000     3.6660 nb         1 84R      -0.782000
     17 C23          2.4080    -0.0010     8.3010 cd         1 84R      -0.065400
     18 S25          4.0490    -0.0020     7.6780 ss         1 84R      -0.066500
     19 C27          2.0810     0.0000     1.2000 ca         1 84R      -0.119000
     20 C29         -0.0080     0.0120     2.4050 ca         1 84R      -0.107000
     21 C31         -0.6980     0.0050     1.2000 ca         1 84R       0.160600
     22 O35          2.0660    -0.0020    -1.1770 oh         1 84R      -0.520100
     23 N37         -2.0950     0.0050     1.1960 nv         1 84R      -0.988200
     24 H1          -0.5400    -0.0030    -0.9390 ha         1 84R       0.145000
     25 H2           0.4610     0.0010     7.4890 ha         1 84R       0.165000
     26 H4           7.9350    -0.1780     6.0070 h1         1 84R       0.058200
     27 H5           5.7270    -1.1100     6.5300 h1         1 84R       0.062700
     28 H6           5.7600    -2.0690     5.0390 h1         1 84R       0.062700
     29 H7           5.7110    -0.9090     2.8770 h1         1 84R       0.062700
     30 H8           5.6440     0.8620     2.8520 h1         1 84R       0.062700
     31 H9           7.8860     0.9850     3.8390 h1         1 84R       0.058200
     32 H10          7.9330    -0.0050     2.3690 h1         1 84R       0.058200
     33 H11          2.1490    -0.0010     9.3530 h4         1 84R       0.177000
     34 H12          3.1650     0.0000     1.1990 ha         1 84R       0.159000
     35 H13         -0.5520     0.0160     3.3420 ha         1 84R       0.162000
     36 H14          2.2230    -0.8910    -1.4480 ho         1 84R       0.417000
     37 H15         -2.5950    -0.8620     1.1990 hn         1 84R       0.429300
     38 H16         -2.5950     0.8720     1.1910 hn         1 84R       0.429300
     39 H3           8.0160    -1.9480     5.9950 h1         1 84R       0.058200
@<TRIPOS>BOND
     1    23    21 1   
     2    21     1 ar  
     3    21    20 ar  
     4     1     2 ar  
     5    20     3 ar  
     6     2    22 1   
     7     2    19 ar  
     8     3    19 ar  
     9     3    15 1   
    10    14    15 ar  
    11    14    13 ar  
    12    15    16 ar  
    13     4    13 1   
    14     4    17 2   
    15    13    12 ar  
    16    16     5 ar  
    17    17    18 1   
    18    12     5 ar  
    19    12    18 1   
    20     5     9 1   
    21     9    10 1   
    22     9     8 1   
    23    10    11 1   
    24     8     7 1   
    25    11     6 1   
    26     7     6 1   
    27     1    24 1   
    28     4    25 1   
    29     7    39 1   
    30     7    26 1   
    31     8    27 1   
    32     8    28 1   
    33    10    29 1   
    34    10    30 1   
    35    11    31 1   
    36    11    32 1   
    37    17    33 1   
    38    19    34 1   
    39    20    35 1   
    40    22    36 1   
    41    23    37 1   
    42    23    38 1   
@<TRIPOS>SUBSTRUCTURE
     1 84R         1 TEMP              0 ****  ****    0 ROOT
