@<TRIPOS>MOLECULE
84T
   55    57     1     0     0
SMALL
bcc


@<TRIPOS>ATOM
      1 O1P          0.0000     0.0000     0.0000 o          1 84T      -0.614500
      2 P            1.6090     0.0000     0.0000 p5         1 84T       0.744800
      3 O2P          2.1020     0.0000     1.3960 o          1 84T      -0.614500
      4 N            2.1570    -1.3380    -0.7730 ns         1 84T      -0.309900
      5 C            1.8310    -1.5520    -2.0630 c          1 84T       0.603100
      6 CA           2.3340    -2.7820    -2.7740 c3         1 84T       0.089100
      7 CB           3.8590    -2.7200    -2.8830 c3         1 84T       0.196100
      8 CG           4.3620    -3.9300    -3.6740 c3         1 84T      -0.095700
      9 CD2          5.8690    -3.7970    -3.9050 c3         1 84T       0.005400
     10 CD1          4.0800    -5.2090    -2.8830 c3         1 84T       0.005400
     11 OHB          4.2400    -1.5190    -3.5570 oh         1 84T      -0.559800
     12 OH           1.7650    -2.8420    -4.0830 oh         1 84T      -0.554800
     13 O            1.1340    -0.7530    -2.6520 o          1 84T      -0.602100
     14 O5'          2.1470     1.3150    -0.7580 os         1 84T      -0.436200
     15 C5'          3.5180     1.7130    -0.7470 c3         1 84T       0.282400
     16 C4'          3.6820     2.9990    -1.5600 c3         1 84T       0.172100
     17 C3'          5.1760     3.3810    -1.6680 c3         1 84T      -0.101400
     18 C2'          5.1760     4.9240    -1.5810 c3         1 84T       0.143100
     19 O2'          5.9160     5.3610    -0.4400 oh         1 84T      -0.575800
     20 O4'          3.0660     4.1110    -0.8740 os         1 84T      -0.365600
     21 C1'          3.6830     5.2920    -1.4320 c3         1 84T       0.143800
     22 N9           3.5260     6.4270    -0.5190 na         1 84T       0.246000
     23 C4           3.6210     7.7550    -0.8520 ca         1 84T       0.255800
     24 N3           3.8590     8.4260    -1.9740 nb         1 84T      -0.680000
     25 C2           3.8880     9.7420    -1.9750 ca         1 84T       0.669900
     26 C8           3.2540     6.3590     0.8150 cc         1 84T       0.297700
     27 N7           3.1830     7.5570     1.3160 nd         1 84T      -0.529100
     28 C5           3.4000     8.4690     0.3370 ca         1 84T      -0.231200
     29 C6           3.4410     9.8730     0.2860 ca         1 84T       0.587200
     30 N1           3.6870    10.4560    -0.8830 nb         1 84T      -0.758000
     31 N6           3.2310    10.6300     1.4240 nv         1 84T      -0.498500
     32 H            2.6920    -2.0200    -0.2740 hn         1 84T       0.170500
     33 HA           2.0470    -3.6640    -2.2150 h1         1 84T       0.007700
     34 HB           4.2930    -2.7310    -1.8910 h1         1 84T       0.005700
     35 HH           0.9880    -3.3760    -4.0640 ho         1 84T       0.379000
     36 HG           3.8520    -3.9750    -4.6280 hc         1 84T       0.054700
     37 HHB          5.1310    -1.3040    -3.3360 ho         1 84T       0.375000
     38 HD21         6.0530    -3.0480    -4.6660 hc         1 84T       0.000200
     39 HD22         6.3510    -3.5000    -2.9820 hc         1 84T       0.000200
     40 HD23         6.2690    -4.7490    -4.2320 hc         1 84T       0.000200
     41 HD11         3.0090    -5.3440    -2.7850 hc         1 84T       0.000200
     42 HD12         4.5260    -5.1320    -1.8990 hc         1 84T       0.000200
     43 HD13         4.5040    -6.0580    -3.4060 hc         1 84T       0.000200
     44 H5'1         3.8350     1.8890     0.2740 h1         1 84T      -0.018300
     45 H5'2         4.1250     0.9300    -1.1840 h1         1 84T      -0.018300
     46 H4'          3.2530     2.8840    -2.5480 h1         1 84T       0.030700
     47 H3'1         5.5820     3.0550    -2.6180 hc         1 84T       0.030700
     48 H3'2         5.7350     2.9560    -0.8430 hc         1 84T       0.030700
     49 H2'          5.5800     5.3520    -2.4900 h1         1 84T       0.011700
     50 HC           6.8250     5.4540    -0.6710 ho         1 84T       0.390000
     51 H8           3.1150     5.4420     1.3750 h5         1 84T       0.054800
     52 H2           4.0870    10.2590    -2.9060 h5         1 84T      -0.013900
     53 HN61         2.9100    10.1910     2.2650 hn         1 84T       0.272300
     54 HN62         3.3940    11.6170     1.4060 hn         1 84T       0.272300
     55 HC1'         3.2530     5.5170    -2.4000 h2         1 84T       0.047700
@<TRIPOS>BOND
     1     1     2 1   
     2     2     3 1   
     3     2     4 1   
     4     2    14 1   
     5     4     5 1   
     6     4    32 1   
     7     5     6 1   
     8     5    13 2   
     9     6     7 1   
    10     6    12 1   
    11     6    33 1   
    12     7     8 1   
    13     7    11 1   
    14     7    34 1   
    15     8     9 1   
    16     8    10 1   
    17     8    36 1   
    18     9    38 1   
    19     9    39 1   
    20     9    40 1   
    21    10    41 1   
    22    10    42 1   
    23    10    43 1   
    24    11    37 1   
    25    12    35 1   
    26    14    15 1   
    27    15    16 1   
    28    15    44 1   
    29    15    45 1   
    30    16    17 1   
    31    16    20 1   
    32    16    46 1   
    33    17    18 1   
    34    17    47 1   
    35    17    48 1   
    36    18    19 1   
    37    18    21 1   
    38    18    49 1   
    39    19    50 1   
    40    20    21 1   
    41    21    22 1   
    42    21    55 1   
    43    22    23 1   
    44    22    26 1   
    45    23    24 ar  
    46    23    28 ar  
    47    24    25 ar  
    48    25    30 ar  
    49    25    52 1   
    50    26    27 2   
    51    26    51 1   
    52    27    28 1   
    53    28    29 ar  
    54    29    30 ar  
    55    29    31 1   
    56    31    53 1   
    57    31    54 1   
@<TRIPOS>SUBSTRUCTURE
     1 84T         1 TEMP              0 ****  ****    0 ROOT
