@<TRIPOS>MOLECULE
molecule
   55    57     1     0     0
SMALL
bcc


@<TRIPOS>ATOM
      1 O1P          0.0000     0.0000     0.0000 o          1 84T      -0.795500
      2 P            1.6090     0.0000     0.0000 p5         1 84T       1.283800
      3 O2P          2.1020     0.0000     1.3960 o          1 84T      -0.795500
      4 N            2.1570    -1.3380    -0.7730 ns         1 84T      -0.662900
      5 C            1.8310    -1.5520    -2.0630 c          1 84T       0.648100
      6 CA           2.3340    -2.7820    -2.7740 c3         1 84T       0.066100
      7 CB           3.8590    -2.7200    -2.8830 c3         1 84T       0.161100
      8 CG           4.3620    -3.9300    -3.6740 c3         1 84T      -0.107700
      9 CD2          5.8690    -3.7970    -3.9050 c3         1 84T      -0.091100
     10 CD1          4.0800    -5.2090    -2.8830 c3         1 84T      -0.091100
     11 OHB          4.2400    -1.5190    -3.5570 oh         1 84T      -0.577800
     12 OH           1.7650    -2.8420    -4.0830 oh         1 84T      -0.570800
     13 O            1.1340    -0.7530    -2.6520 o          1 84T      -0.546100
     14 O5'          2.1470     1.3150    -0.7580 os         1 84T      -0.551200
     15 C5'          3.5180     1.7130    -0.7470 c3         1 84T       0.217400
     16 C4'          3.6820     2.9990    -1.5600 c3         1 84T       0.140100
     17 C3'          5.1760     3.3810    -1.6680 c3         1 84T      -0.153400
     18 C2'          5.1760     4.9240    -1.5810 c3         1 84T       0.099100
     19 O2'          5.9160     5.3610    -0.4400 oh         1 84T      -0.586800
     20 O4'          3.0660     4.1110    -0.8740 os         1 84T      -0.379600
     21 C1'          3.6830     5.2920    -1.4320 c3         1 84T       0.259800
     22 N9           3.5260     6.4270    -0.5190 na         1 84T      -0.228000
     23 C4           3.6210     7.7550    -0.8520 ca         1 84T       0.465800
     24 N3           3.8590     8.4260    -1.9740 nb         1 84T      -0.795000
     25 C2           3.8880     9.7420    -1.9750 ca         1 84T       0.721900
     26 C8           3.2540     6.3590     0.8150 cc         1 84T       0.479700
     27 N7           3.1830     7.5570     1.3160 nd         1 84T      -0.615100
     28 C5           3.4000     8.4690     0.3370 ca         1 84T      -0.197200
     29 C6           3.4410     9.8730     0.2860 ca         1 84T       0.779200
     30 N1           3.6870    10.4560    -0.8830 nb         1 84T      -0.846000
     31 N6           3.2310    10.6300     1.4240 nv         1 84T      -0.993500
     32 H            2.6920    -2.0200    -0.2740 hn         1 84T       0.299500
     33 HA           2.0470    -3.6640    -2.2150 h1         1 84T       0.044700
     34 HB           4.2930    -2.7310    -1.8910 h1         1 84T       0.035700
     35 HH           0.9880    -3.3760    -4.0640 ho         1 84T       0.398000
     36 HG           3.8520    -3.9750    -4.6280 hc         1 84T       0.080700
     37 HHB          5.1310    -1.3040    -3.3360 ho         1 84T       0.390000
     38 HD21         6.0530    -3.0480    -4.6660 hc         1 84T       0.031867
     39 HD22         6.3510    -3.5000    -2.9820 hc         1 84T       0.031867
     40 HD23         6.2690    -4.7490    -4.2320 hc         1 84T       0.031867
     41 HD11         3.0090    -5.3440    -2.7850 hc         1 84T       0.031867
     42 HD12         4.5260    -5.1320    -1.8990 hc         1 84T       0.031867
     43 HD13         4.5040    -6.0580    -3.4060 hc         1 84T       0.031867
     44 H5'1         3.8350     1.8890     0.2740 h1         1 84T       0.027200
     45 H5'2         4.1250     0.9300    -1.1840 h1         1 84T       0.027200
     46 H4'          3.2530     2.8840    -2.5480 h1         1 84T       0.068700
     47 H3'1         5.5820     3.0550    -2.6180 hc         1 84T       0.060700
     48 H3'2         5.7350     2.9560    -0.8430 hc         1 84T       0.060700
     49 H2'          5.5800     5.3520    -2.4900 h1         1 84T       0.046700
     50 HC           6.8250     5.4540    -0.6710 ho         1 84T       0.400000
     51 H8           3.1150     5.4420     1.3750 h5         1 84T       0.105800
     52 H2           4.0870    10.2590    -2.9060 h5         1 84T       0.050100
     53 HN61         2.9100    10.1910     2.2650 hn         1 84T       0.444800
     54 HN62         3.3940    11.6170     1.4060 hn         1 84T       0.444800
     55 HC1'         3.2530     5.5170    -2.4000 h2         1 84T       0.087700
@<TRIPOS>BOND
     1     1     2 1   
     2     2     3 1   
     3     2     4 1   
     4     2    14 1   
     5     4     5 1   
     6     5     6 1   
     7     5    13 2   
     8     6     7 1   
     9     6    12 1   
    10     7     8 1   
    11     7    11 1   
    12     8     9 1   
    13     8    10 1   
    14    14    15 1   
    15    15    16 1   
    16    16    17 1   
    17    16    20 1   
    18    17    18 1   
    19    18    19 1   
    20    18    21 1   
    21    20    21 1   
    22    21    22 1   
    23    22    23 1   
    24    22    26 1   
    25    23    24 ar  
    26    23    28 ar  
    27    24    25 ar  
    28    25    30 ar  
    29    26    27 2   
    30    27    28 1   
    31    28    29 ar  
    32    29    30 ar  
    33    21    55 1   
    34     4    32 1   
    35     6    33 1   
    36     7    34 1   
    37    12    35 1   
    38     8    36 1   
    39    11    37 1   
    40     9    38 1   
    41     9    39 1   
    42     9    40 1   
    43    10    41 1   
    44    10    42 1   
    45    10    43 1   
    46    15    44 1   
    47    15    45 1   
    48    16    46 1   
    49    17    47 1   
    50    17    48 1   
    51    18    49 1   
    52    19    50 1   
    53    26    51 1   
    54    25    52 1   
    55    29    31 1   
    56    31    53 1   
    57    31    54 1   
@<TRIPOS>SUBSTRUCTURE
     1 84T         1 TEMP              0 ****  ****    0 ROOT
