@<TRIPOS>MOLECULE
84U
   52    56     1     0     0
SMALL
bcc


@<TRIPOS>ATOM
      1 O01          0.0000     0.0000     0.0000 os         1 84U      -0.409600
      2 C02          1.4310     0.0000     0.0000 c3         1 84U       0.213400
      3 C05          1.9360     0.0000     1.4450 c3         1 84U       0.088300
      4 N08          1.3790     1.1620     2.1530 nh         1 84U      -0.453300
      5 C09         -0.0910     1.1290     2.1320 c3         1 84U       0.088300
      6 C12         -0.5760     1.1180     0.6810 c3         1 84U       0.213400
      7 C15          1.8560     1.2270     3.4530 ca         1 84U       0.577200
      8 C16          3.2380     1.2670     3.7040 ca         1 84U      -0.254700
      9 C17          3.6840     1.3330     5.0270 ca         1 84U       0.460100
     10 N18          2.7540     1.3530     6.0070 nb         1 84U      -0.611000
     11 C19          1.4680     1.3130     5.7260 cp         1 84U       0.691500
     12 N20          1.0150     1.2570     4.4780 nb         1 84U      -0.661000
     13 C21          5.0850     1.3660     5.1200 cc         1 84U      -0.222800
     14 C23          5.7400     1.3330     3.9700 cd         1 84U       0.015600
     15 S25          4.6210     1.2510     2.6190 ss         1 84U      -0.183500
     16 C26          0.4910     1.3380     6.8410 cp         1 84U      -0.099500
     17 C27         -0.8750     1.2960     6.5720 ca         1 84U      -0.164000
     18 C29          0.9370     1.3980     8.1580 ca         1 84U      -0.158000
     19 C31          0.0200     1.4160     9.1990 ca         1 84U       0.071600
     20 C32         -1.3410     1.3740     8.9280 ca         1 84U      -0.217000
     21 C34         -1.7870     1.3210     7.6160 ca         1 84U       0.159100
     22 O35         -3.1200     1.2800     7.3540 oh         1 84U      -0.502100
     23 N37          0.4670     1.4690    10.5230 nu         1 84U      -0.433600
     24 C39         -0.5010     1.4810    11.6220 c3         1 84U       0.229100
     25 C42          0.2340     1.5420    12.9370 ca         1 84U      -0.134300
     26 C43          0.5410     2.7670    13.5000 ca         1 84U      -0.057000
     27 C45          1.2150     2.8240    14.7060 ca         1 84U      -0.134000
     28 C47          1.5810     1.6530    15.3500 ca         1 84U       0.112900
     29 C48          1.2710     0.4280    14.7840 ca         1 84U      -0.134000
     30 C50          0.5940     0.3730    13.5810 ca         1 84U      -0.057000
     31 F52          2.2390     1.7070    16.5280 f          1 84U      -0.126900
     32 H1           1.7910    -0.8860    -0.5080 h1         1 84U       0.015700
     33 H2           1.7910     0.8860    -0.5080 h1         1 84U       0.015700
     34 H3           3.0170     0.0600     1.4490 h1         1 84U       0.038950
     35 H4           1.6170    -0.9100     1.9390 h1         1 84U       0.038950
     36 H5          -0.4390     0.2340     2.6350 h1         1 84U       0.038950
     37 H6          -0.4780     2.0070     2.6350 h1         1 84U       0.038950
     38 H7          -1.6560     1.0340     0.6620 h1         1 84U       0.015700
     39 H8          -0.2700     2.0350     0.1910 h1         1 84U       0.015700
     40 H9           5.5980     1.4180     6.0730 ha         1 84U       0.132000
     41 H10          6.8190     1.3530     3.8740 h4         1 84U       0.150000
     42 H11         -1.2250     1.2550     5.5480 ha         1 84U       0.132000
     43 H12          1.9990     1.4300     8.3700 ha         1 84U       0.131000
     44 H13         -2.0550     1.3900     9.7420 ha         1 84U       0.124000
     45 H14         -3.4360     2.1540     7.1910 ho         1 84U       0.402000
     46 H15          1.4460     1.5400    10.7180 hn         1 84U       0.299800
     47 H16         -1.1010     0.5800    11.5850 h1         1 84U       0.017700
     48 H17         -1.1440     2.3480    11.5270 h1         1 84U       0.017700
     49 H18          0.2550     3.6820    12.9960 ha         1 84U       0.112500
     50 H19          1.4560     3.7830    15.1470 ha         1 84U       0.121000
     51 H20          1.5550    -0.4880    15.2880 ha         1 84U       0.121000
     52 H21          0.3520    -0.5860    13.1390 ha         1 84U       0.112500
@<TRIPOS>BOND
     1     1     2 1   
     2     1     6 1   
     3     2     3 1   
     4     2    32 1   
     5     2    33 1   
     6     3     4 1   
     7     3    34 1   
     8     3    35 1   
     9     4     5 1   
    10     4     7 1   
    11     5     6 1   
    12     5    36 1   
    13     5    37 1   
    14     6    38 1   
    15     6    39 1   
    16     7     8 ar  
    17     7    12 ar  
    18     8     9 ar  
    19     8    15 1   
    20     9    10 ar  
    21     9    13 1   
    22    10    11 ar  
    23    11    12 ar  
    24    11    16 1   
    25    13    14 2   
    26    13    40 1   
    27    14    15 1   
    28    14    41 1   
    29    16    17 ar  
    30    16    18 ar  
    31    17    21 ar  
    32    17    42 1   
    33    18    19 ar  
    34    18    43 1   
    35    19    20 ar  
    36    19    23 1   
    37    20    21 ar  
    38    20    44 1   
    39    21    22 1   
    40    22    45 1   
    41    23    24 1   
    42    23    46 1   
    43    24    25 1   
    44    24    47 1   
    45    24    48 1   
    46    25    26 ar  
    47    25    30 ar  
    48    26    27 ar  
    49    26    49 1   
    50    27    28 ar  
    51    27    50 1   
    52    28    29 ar  
    53    28    31 1   
    54    29    30 ar  
    55    29    51 1   
    56    30    52 1   
@<TRIPOS>SUBSTRUCTURE
     1 84U         1 TEMP              0 ****  ****    0 ROOT
