@<TRIPOS>MOLECULE
molecule
   72    76     1     0     0
SMALL
bcc


@<TRIPOS>ATOM
      1 O16          0.0000     0.0000     0.0000 o          1 851      -0.599100
      2 C15          1.2130     0.0000     0.0000 c          1 851       0.673100
      3 C8           1.9670     0.0000     1.3050 c3         1 851       0.055700
      4 C9           2.8460    -1.2490     1.3860 c3         1 851      -0.088700
      5 C14          3.6110    -1.2480     2.7110 c3         1 851      -0.076900
      6 C13          4.4910    -2.4980     2.7920 c3         1 851      -0.078900
      7 C12          3.6100    -3.7480     2.7120 c3         1 851      -0.081400
      8 C11          2.8450    -3.7480     1.3870 c3         1 851      -0.078900
      9 C10          1.9660    -2.4980     1.3060 c3         1 851      -0.076900
     10 N7           1.0150     0.0010     2.4190 ns         1 851      -0.573900
     11 C5           1.3810     0.4940     3.6180 c          1 851       0.662100
     12 O6           2.4990     0.9390     3.7750 o          1 851      -0.591100
     13 C3           0.4030     0.4950     4.7640 c3         1 851       0.092500
     14 C4          -0.8270     1.3230     4.3840 c3         1 851      -0.131100
     15 N2           1.0390     1.0810     5.9520 n7         1 851      -0.792200
     16 C1           0.4070     0.5910     7.1830 c3         1 851       0.148100
     17 N17          1.8860    -0.0070    -1.1670 n          1 851      -0.494800
     18 C21          3.3530    -0.0080    -1.3130 c3         1 851       0.088000
     19 C20          3.6130     0.5960    -2.7160 c3         1 851      -0.098400
     20 C19          2.4320     0.0080    -3.5320 c3         1 851      -0.089400
     21 C18          1.2790    -0.0200    -2.5060 c3         1 851       0.107400
     22 C22          0.4590    -1.2710    -2.6850 cc         1 851       0.392200
     23 N26         -0.7150    -1.2950    -3.1950 nd         1 851      -0.560100
     24 C25         -1.3320    -2.4870    -3.2940 ca         1 851       0.131400
     25 C30         -2.6160    -2.8010    -3.8110 cp         1 851       0.023000
     26 C29         -3.0580    -4.1140    -3.8160 ca         1 851      -0.119000
     27 C28         -2.2560    -5.1270    -3.3200 ca         1 851      -0.118000
     28 C27         -1.0070    -4.8400    -2.8160 ca         1 851      -0.090000
     29 C24         -0.5390    -3.5270    -2.7990 ca         1 851      -0.053100
     30 S23          0.9820    -2.8340    -2.2420 ss         1 851      -0.102100
     31 C31         -3.4830    -1.7250    -4.3430 cp         1 851      -0.044000
     32 C36         -4.0740    -1.8600    -5.5990 ca         1 851      -0.101500
     33 C35         -4.8820    -0.8550    -6.0890 ca         1 851      -0.134000
     34 C34         -5.1070     0.2850    -5.3390 ca         1 851      -0.124000
     35 C33         -4.5230     0.4250    -4.0920 ca         1 851      -0.134000
     36 C32         -3.7170    -0.5760    -3.5880 ca         1 851      -0.101500
     37 H8           2.5900     0.8840     1.3620 h1         1 851       0.093700
     38 H9           3.5510    -1.2530     0.5640 hc         1 851       0.055700
     39 H14          2.9070    -1.2510     3.5340 hc         1 851       0.054450
     40 H14A         4.2360    -0.3650     2.7660 hc         1 851       0.054450
     41 H13          5.1920    -2.4990     1.9660 hc         1 851       0.039450
     42 H13A         5.0310    -2.4980     3.7310 hc         1 851       0.039450
     43 H12          4.2340    -4.6320     2.7680 hc         1 851       0.040200
     44 H12A         2.9060    -3.7440     3.5350 hc         1 851       0.040200
     45 H11          3.5490    -3.7460     0.5640 hc         1 851       0.039450
     46 H11A         2.2200    -4.6310     1.3330 hc         1 851       0.039450
     47 H10          1.2640    -2.4980     2.1310 hc         1 851       0.054450
     48 H10A         1.4260    -2.4990     0.3670 hc         1 851       0.054450
     49 HN7          0.0850    -0.3410     2.2820 hn         1 851       0.334500
     50 H3           0.1000    -0.5230     4.9810 h1         1 851       0.073700
     51 H4          -1.6430     0.6600     4.1220 hc         1 851       0.046367
     52 H4A         -1.1200     1.9410     5.2240 hc         1 851       0.046367
     53 H4B         -0.5890     1.9550     3.5360 hc         1 851       0.046367
     54 HN2          0.9650     2.0780     5.9120 hn         1 851       0.366800
     55 H1          -0.4070     1.2520     7.4590 h1         1 851       0.032033
     56 H1A          1.1390     0.5690     7.9810 h1         1 851       0.032033
     57 H1B          0.0210    -0.4080     7.0190 h1         1 851       0.032033
     58 H21          3.7340    -1.0210    -1.2650 h1         1 851       0.055700
     59 H21A         3.8080     0.6100    -0.5480 h1         1 851       0.055700
     60 H20          4.5620     0.2570    -3.1120 hc         1 851       0.061700
     61 H20A         3.5600     1.6780    -2.6860 hc         1 851       0.061700
     62 H19          2.1860     0.6540    -4.3660 hc         1 851       0.066200
     63 H19A         2.6650    -0.9950    -3.8710 hc         1 851       0.066200
     64 H18          0.6550     0.8570    -2.6340 h1         1 851       0.097700
     65 H29         -4.0390    -4.3490    -4.2110 ha         1 851       0.142000
     66 H28         -2.6120    -6.1500    -3.3290 ha         1 851       0.137000
     67 H27         -0.3850    -5.6380    -2.4290 ha         1 851       0.135000
     68 H36         -3.8990    -2.7520    -6.1880 ha         1 851       0.139500
     69 H35         -5.3420    -0.9580    -7.0650 ha         1 851       0.129500
     70 H34         -5.7400     1.0720    -5.7290 ha         1 851       0.127000
     71 H33         -4.7040     1.3190    -3.5070 ha         1 851       0.129500
     72 H32         -3.2610    -0.4660    -2.6110 ha         1 851       0.139500
@<TRIPOS>BOND
     1     1     2 2
     2     2     3 1
     3     2    17 1
     4     3     4 1
     5     3    10 1
     6     4     5 1
     7     4     9 1
     8     5     6 1
     9     6     7 1
    10     7     8 1
    11     8     9 1
    12    10    11 1
    13    11    12 2
    14    11    13 1
    15    13    14 1
    16    13    15 1
    17    15    16 1
    18    17    18 1
    19    17    21 1
    20    18    19 1
    21    19    20 1
    22    20    21 1
    23    21    22 1
    24    22    23 2
    25    22    30 1
    26    23    24 1
    27    24    25 ar
    28    24    29 ar
    29    25    26 ar
    30    25    31 1
    31    26    27 ar
    32    27    28 ar
    33    28    29 ar
    34    29    30 1
    35    31    32 ar
    36    31    36 ar
    37    32    33 ar
    38    33    34 ar
    39    34    35 ar
    40    35    36 ar
    41     3    37 1
    42     4    38 1
    43     5    39 1
    44     5    40 1
    45     6    41 1
    46     6    42 1
    47     7    43 1
    48     7    44 1
    49     8    45 1
    50     8    46 1
    51     9    47 1
    52     9    48 1
    53    10    49 1
    54    13    50 1
    55    14    51 1
    56    14    52 1
    57    14    53 1
    58    15    54 1
    59    16    55 1
    60    16    56 1
    61    16    57 1
    62    18    58 1
    63    18    59 1
    64    19    60 1
    65    19    61 1
    66    20    62 1
    67    20    63 1
    68    21    64 1
    69    26    65 1
    70    27    66 1
    71    28    67 1
    72    32    68 1
    73    33    69 1
    74    34    70 1
    75    35    71 1
    76    36    72 1
@<TRIPOS>SUBSTRUCTURE
     1 851         1 TEMP              0 ****  ****    0 ROOT
