@<TRIPOS>MOLECULE
852
   78    81     1     0     0
SMALL
bcc


@<TRIPOS>ATOM
      1 C1           0.0000     0.0000     0.0000 ca         1 852      -0.222300
      2 C2           1.3830     0.0000     0.0000 ca         1 852      -0.160000
      3 C3           2.0810     0.0000     1.1950 ca         1 852      -0.046000
      4 C4           1.4020    -0.0000     2.3940 ca         1 852       0.105700
      5 C5           0.0060    -0.0010     2.4020 ca         1 852      -0.126600
      6 C6          -0.6920     0.0040     1.1920 ca         1 852      -0.101000
      7 C7          -0.7510     0.0000    -1.3050 c3         1 852       0.030900
      8 C8          -1.0050    -1.4430    -1.7480 c3         1 852      -0.030300
      9 C9          -1.7570    -1.4430    -3.0530 c          1 852       0.552100
     10 N10         -3.1050    -1.4430    -3.0550 ns         1 852      -0.266900
     11 O11         -1.1490    -1.4410    -4.1030 o          1 852      -0.599100
     12 N12          0.2750    -2.1320    -1.9220 ns         1 852      -0.145900
     13 C13          1.1740    -1.6700    -2.8140 c          1 852       0.581100
     14 O14          0.9210    -0.6850    -3.4740 o          1 852      -0.640100
     15 C15          2.4910    -2.3800    -2.9940 c3         1 852      -0.071100
     16 C16         -3.8350    -1.4440    -4.3250 c3         1 852      -0.033300
     17 C17         -3.8180    -0.0520    -4.9220 c          1 852       0.628500
     18 N18         -4.1380     1.0030    -4.1670 n          1 852      -0.125800
     19 O19         -3.5190     0.1070    -6.0860 o          1 852      -0.701500
     20 C20         -4.4980     0.8260    -2.7510 c3         1 852       0.000000
     21 C21         -5.8830     0.1800    -2.6750 c3         1 852      -0.045400
     22 C22         -4.1290     2.3460    -4.7540 c3         1 852       0.112300
     23 C23         -2.7610     2.9540    -4.5900 ca         1 852      -0.135300
     24 C24         -5.7780    -1.3320    -2.7420 c3         1 852      -0.044400
     25 C25         -5.2900    -1.8520    -4.0810 c3         1 852      -0.032400
     26 C26         -2.4700     3.7020    -3.4630 ca         1 852      -0.082000
     27 C27         -1.2170     4.2580    -3.3040 ca         1 852      -0.086500
     28 C28         -0.2470     4.0750    -4.2890 cp         1 852      -0.022000
     29 C29         -0.5480     3.3270    -5.4240 ca         1 852      -0.086500
     30 C30         -1.8020     2.7690    -5.5700 ca         1 852      -0.082000
     31 C31          1.1000     4.6760    -4.1280 cp         1 852      -0.023000
     32 C32          2.2340     3.9600    -4.5030 ca         1 852      -0.085000
     33 C33          3.4840     4.5260    -4.3570 ca         1 852      -0.103500
     34 C34          3.6130     5.7960    -3.8260 ca         1 852      -0.106000
     35 C35          2.4910     6.5090    -3.4450 ca         1 852      -0.103500
     36 C36          1.2360     5.9560    -3.5930 ca         1 852      -0.085000
     37 C37         -0.7290    -0.0020     3.6830 c          1 852       0.992200
     38 O38         -1.8490     0.7330     3.8180 o          1 852      -0.908800
     39 O39         -0.3230    -0.6660     4.6160 o          1 852      -0.908800
     40 C40          2.1650    -0.0010     3.6950 c3         1 852      -0.258400
     41 C41          3.1260     1.1590     3.7130 c          1 852       1.032600
     42 O42          3.9160     1.3590     4.7790 o          1 852      -0.943550
     43 O43          3.1860     1.9080     2.7660 o          1 852      -0.943550
     44 C76          2.9300    -1.2900     3.8280 c          1 852       1.032600
     45 O78          3.6860    -1.5130     4.9150 o          1 852      -0.943550
     46 O79          2.8650    -2.1240     2.9570 o          1 852      -0.943550
     47 H2           1.9230    -0.0010    -0.9390 ha         1 852       0.068000
     48 H3           3.1640     0.0000     1.1870 ha         1 852       0.123000
     49 H6          -1.7760     0.0030     1.1910 ha         1 852       0.081000
     50 H71         -1.6980     0.5100    -1.1770 hc         1 852       0.023200
     51 H72         -0.1650     0.5110    -2.0600 hc         1 852       0.023200
     52 H8          -1.5910    -1.9540    -0.9940 h1         1 852       0.037700
     53 H10         -3.6050    -1.5170    -2.1910 hn         1 852       0.210500
     54 H12          0.4760    -2.9560    -1.3910 hn         1 852       0.175500
     55 H151         3.2810    -1.6490    -3.1150 hc         1 852       0.015033
     56 H152         2.4440    -3.0100    -3.8740 hc         1 852       0.015033
     57 H153         2.6940    -2.9910    -2.1230 hc         1 852       0.015033
     58 H16         -3.3750    -2.1400    -5.0150 h1         1 852       0.066700
     59 H201        -4.5210     1.7910    -2.2590 h1         1 852       0.058700
     60 H202        -3.7710     0.1830    -2.2690 h1         1 852       0.058700
     61 H211        -6.3550     0.4620    -1.7410 hc         1 852       0.017200
     62 H212        -6.4840     0.5310    -3.5040 hc         1 852       0.017200
     63 H221        -4.8620     2.9650    -4.2520 h1         1 852       0.020700
     64 H222        -4.3710     2.2820    -5.8080 h1         1 852       0.020700
     65 H241        -6.7560    -1.7540    -2.5440 hc         1 852       0.021700
     66 H242        -5.0900    -1.6640    -1.9730 hc         1 852       0.021700
     67 H251        -5.3620    -2.9330    -4.0900 hc         1 852       0.016200
     68 H252        -5.9110    -1.4420    -4.8690 hc         1 852       0.016200
     69 H26         -3.2240     3.8440    -2.6980 ha         1 852       0.111000
     70 H27         -0.9900     4.8410    -2.4200 ha         1 852       0.111000
     71 H29          0.2020     3.1820    -6.1920 ha         1 852       0.111000
     72 H30         -2.0360     2.1870    -6.4530 ha         1 852       0.111000
     73 H32          2.1340     2.9650    -4.9200 ha         1 852       0.111500
     74 H33          4.3660     3.9710    -4.6520 ha         1 852       0.094500
     75 H34          4.5970     6.2350    -3.7100 ha         1 852       0.091000
     76 H35          2.5980     7.5040    -3.0290 ha         1 852       0.094500
     77 H36          0.3570     6.5150    -3.2950 ha         1 852       0.111500
     78 H40          1.4700     0.0940     4.5200 hc         1 852       0.104700
@<TRIPOS>BOND
     1     1     2 ar  
     2     1     6 ar  
     3     1     7 1   
     4     2     3 ar  
     5     2    47 1   
     6     3     4 ar  
     7     3    48 1   
     8     4     5 ar  
     9     4    40 1   
    10     5     6 ar  
    11     5    37 1   
    12     6    49 1   
    13     7     8 1   
    14     7    50 1   
    15     7    51 1   
    16     8     9 1   
    17     8    12 1   
    18     8    52 1   
    19     9    10 1   
    20     9    11 2   
    21    10    16 1   
    22    10    53 1   
    23    12    13 1   
    24    12    54 1   
    25    13    14 2   
    26    13    15 1   
    27    15    55 1   
    28    15    56 1   
    29    15    57 1   
    30    16    17 1   
    31    16    25 1   
    32    16    58 1   
    33    17    18 1   
    34    17    19 2   
    35    18    20 1   
    36    18    22 1   
    37    20    21 1   
    38    20    59 1   
    39    20    60 1   
    40    21    24 1   
    41    21    61 1   
    42    21    62 1   
    43    22    23 1   
    44    22    63 1   
    45    22    64 1   
    46    23    26 ar  
    47    23    30 ar  
    48    24    25 1   
    49    24    65 1   
    50    24    66 1   
    51    25    67 1   
    52    25    68 1   
    53    26    27 ar  
    54    26    69 1   
    55    27    28 ar  
    56    27    70 1   
    57    28    29 ar  
    58    28    31 1   
    59    29    30 ar  
    60    29    71 1   
    61    30    72 1   
    62    31    32 ar  
    63    31    36 ar  
    64    32    33 ar  
    65    32    73 1   
    66    33    34 ar  
    67    33    74 1   
    68    34    35 ar  
    69    34    75 1   
    70    35    36 ar  
    71    35    76 1   
    72    36    77 1   
    73    37    38 1   
    74    37    39 1   
    75    40    41 1   
    76    40    44 1   
    77    40    78 1   
    78    41    42 1   
    79    41    43 1   
    80    44    45 1   
    81    44    46 1   
@<TRIPOS>SUBSTRUCTURE
     1 852         1 TEMP              0 ****  ****    0 ROOT
