@<TRIPOS>MOLECULE
molecule
   76    79     1     0     0
SMALL
bcc


@<TRIPOS>ATOM
      1 C1           0.0000     0.0000     0.0000 ca         1 853      -0.166300
      2 C2           1.3830     0.0000     0.0000 ca         1 853      -0.143000
      3 C3           2.0830     0.0000     1.1930 ca         1 853      -0.168000
      4 C4           1.4040     0.0020     2.3940 ca         1 853       0.023700
      5 C5           0.0080     0.0010     2.4020 ca         1 853      -0.092600
      6 C6          -0.6910     0.0050     1.1930 ca         1 853      -0.098000
      7 C10         -0.7530    -0.0000    -1.3050 c3         1 853      -0.030100
      8 C11         -1.0070    -1.4430    -1.7450 c3         1 853       0.062700
      9 C14         -1.7600    -1.4440    -3.0510 c          1 853       0.630100
     10 N15         -3.1070    -1.4440    -3.0520 ns         1 853      -0.606900
     11 O16         -1.1530    -1.4430    -4.1010 o          1 853      -0.569100
     12 N17          0.2730    -2.1340    -1.9200 ns         1 853      -0.562900
     13 C18          1.1710    -1.6730    -2.8150 c          1 853       0.665100
     14 O19          0.9190    -0.6880    -3.4730 o          1 853      -0.582100
     15 C20          2.4880    -2.3830    -2.9940 c3         1 853      -0.167100
     16 C24         -3.8400    -1.4440    -4.3210 c3         1 853       0.054700
     17 C25         -3.8420    -0.0480    -4.9070 c          1 853       0.702500
     18 N26         -4.1790     0.9960    -4.1430 n          1 853      -0.472800
     19 O27         -3.5470     0.1250    -6.0700 o          1 853      -0.658500
     20 C28         -4.5360     0.8020    -2.7280 c3         1 853       0.088000
     21 C29         -5.9100     0.1330    -2.6550 c3         1 853      -0.107400
     22 C32         -4.1900     2.3420    -4.7180 c3         1 853       0.156300
     23 C33         -2.8320     2.9710    -4.5500 ca         1 853      -0.117300
     24 C36         -5.7810    -1.3760    -2.7360 c3         1 853      -0.086400
     25 C39         -5.2870    -1.8790    -4.0800 c3         1 853      -0.090400
     26 C46         -2.5520     3.7130    -3.4160 ca         1 853      -0.109000
     27 C47         -1.3080     4.2880    -3.2550 ca         1 853      -0.111500
     28 C48         -0.3360     4.1280    -4.2410 cp         1 853      -0.032000
     29 C49         -0.6260     3.3840    -5.3830 ca         1 853      -0.111500
     30 C50         -1.8720     2.8090    -5.5320 ca         1 853      -0.109000
     31 C55          1.0020     4.7480    -4.0750 cp         1 853      -0.015000
     32 C56          2.1470     4.0530    -4.4590 ca         1 853      -0.109000
     33 C57          3.3880     4.6370    -4.3080 ca         1 853      -0.137500
     34 C58          3.4980     5.9050    -3.7670 ca         1 853      -0.133000
     35 C59          2.3660     6.5970    -3.3790 ca         1 853      -0.137500
     36 C60          1.1190     6.0250    -3.5300 ca         1 853      -0.109000
     37 C68         -0.7260     0.0010     3.6840 c          1 853       0.887200
     38 O69         -2.0690    -0.0970     3.6910 o          1 853      -0.840300
     39 O70         -0.1190     0.0900     4.7320 o          1 853      -0.840300
     40 C71          2.1670     0.0030     3.6930 c3         1 853      -0.143100
     41 C72          2.2010     1.3990     4.2540 c          1 853       0.932600
     42 O75          2.8320     1.6420     5.4150 o          1 853      -0.870300
     43 O76          1.6620     2.3030     3.6610 o          1 853      -0.870300
     44 H2           1.9220     0.0200    -0.9400 ha         1 853       0.090000
     45 H3           3.1660     0.0000     1.1850 ha         1 853       0.103000
     46 H6          -1.7730    -0.0490     1.1930 ha         1 853       0.128000
     47 H101        -1.7000     0.5100    -1.1760 hc         1 853       0.059200
     48 H102        -0.1680     0.5100    -2.0610 hc         1 853       0.059200
     49 H11         -1.5920    -1.9540    -0.9900 h1         1 853       0.065700
     50 H15         -3.6070    -1.5070    -2.1870 hn         1 853       0.326500
     51 H17          0.4630    -2.9720    -1.4080 hn         1 853       0.312500
     52 H201         3.2720    -1.6540    -3.1600 hc         1 853       0.050367
     53 H202         2.7130    -2.9580    -2.1040 hc         1 853       0.050367
     54 H203         2.4270    -3.0480    -3.8470 hc         1 853       0.050367
     55 H24         -3.3690    -2.1280    -5.0170 h1         1 853       0.098700
     56 H281        -4.5730     1.7620    -2.2280 h1         1 853       0.073700
     57 H282        -3.7980     0.1670    -2.2520 h1         1 853       0.073700
     58 H291        -6.5180     0.4820    -3.4810 hc         1 853       0.048700
     59 H292        -6.3850     0.3990    -1.7190 hc         1 853       0.048700
     60 H321        -4.9330     2.9460    -4.2100 h1         1 853       0.052700
     61 H322        -4.4330     2.2830    -5.7720 h1         1 853       0.052700
     62 H361        -5.0880    -1.7040    -1.9700 hc         1 853       0.042700
     63 H362        -6.7530    -1.8150    -2.5410 hc         1 853       0.042700
     64 H391        -5.9150    -1.4740    -4.8640 hc         1 853       0.048700
     65 H392        -5.3410    -2.9610    -4.0960 hc         1 853       0.048700
     66 H46         -3.3080     3.8370    -2.6500 ha         1 853       0.136500
     67 H47         -1.0880     4.8670    -2.3660 ha         1 853       0.135500
     68 H49          0.1250     3.2560    -6.1530 ha         1 853       0.135500
     69 H50         -2.0980     2.2310    -6.4200 ha         1 853       0.136500
     70 H56          2.0580     3.0800    -4.9280 ha         1 853       0.137000
     71 H57          4.2790     4.1000    -4.6130 ha         1 853       0.122000
     72 H58          4.4750     6.3570    -3.6460 ha         1 853       0.117000
     73 H59          2.4570     7.5900    -2.9560 ha         1 853       0.122000
     74 H60          0.3800     6.7820    -3.2970 ha         1 853       0.137000
     75 H711         1.6780    -0.6580     4.4000 hc         1 853       0.043200
     76 H712         3.1790    -0.3410     3.5180 hc         1 853       0.043200
@<TRIPOS>BOND
     1     1     2 ar  
     2     1     6 ar  
     3     1     7 1   
     4     2     3 ar  
     5     2    44 1   
     6     3     4 ar  
     7     3    45 1   
     8     4     5 ar  
     9     4    40 1   
    10     5     6 ar  
    11     5    37 1   
    12     6    46 1   
    13     7     8 1   
    14     7    47 1   
    15     7    48 1   
    16     8     9 1   
    17     8    12 1   
    18     8    49 1   
    19     9    10 1   
    20     9    11 2   
    21    10    16 1   
    22    10    50 1   
    23    12    13 1   
    24    12    51 1   
    25    13    14 2   
    26    13    15 1   
    27    15    52 1   
    28    15    53 1   
    29    15    54 1   
    30    16    17 1   
    31    16    25 1   
    32    16    55 1   
    33    17    18 1   
    34    17    19 2   
    35    18    20 1   
    36    18    22 1   
    37    20    21 1   
    38    20    56 1   
    39    20    57 1   
    40    21    24 1   
    41    21    58 1   
    42    21    59 1   
    43    22    23 1   
    44    22    60 1   
    45    22    61 1   
    46    23    26 ar  
    47    23    30 ar  
    48    24    25 1   
    49    24    62 1   
    50    24    63 1   
    51    25    64 1   
    52    25    65 1   
    53    26    27 ar  
    54    26    66 1   
    55    27    28 ar  
    56    27    67 1   
    57    28    29 ar  
    58    28    31 1   
    59    29    30 ar  
    60    29    68 1   
    61    30    69 1   
    62    31    32 ar  
    63    31    36 ar  
    64    32    33 ar  
    65    32    70 1   
    66    33    34 ar  
    67    33    71 1   
    68    34    35 ar  
    69    34    72 1   
    70    35    36 ar  
    71    35    73 1   
    72    36    74 1   
    73    37    38 1   
    74    37    39 1   
    75    40    41 1   
    76    40    75 1   
    77    40    76 1   
    78    41    42 1   
    79    41    43 1   
@<TRIPOS>SUBSTRUCTURE
     1 853         1 TEMP              0 ****  ****    0 ROOT
