@<TRIPOS>MOLECULE
molecule
   42    43     1     0     0
SMALL
bcc


@<TRIPOS>ATOM
      1 O3           0.0000     0.0000     0.0000 o          1 854      -0.629800
      2 S            1.4210     0.0000     0.0000 s6         1 854       1.338900
      3 O2           2.1540     0.0000     1.2170 o          1 854      -0.629800
      4 N            1.8290    -1.4330    -0.7230 n3         1 854      -0.811500
      5 C7           0.8900    -2.1090    -1.6270 c3         1 854       0.239800
      6 C6           1.5950    -2.3820    -2.9590 c3         1 854      -0.102400
      7 C5           2.8870    -3.1610    -2.6970 c3         1 854      -0.075400
      8 C4           3.8190    -2.3240    -1.8180 c3         1 854      -0.090400
      9 C3           3.1410    -2.0480    -0.4780 c3         1 854       0.206500
     10 C2           3.9960    -1.1090     0.3340 c          1 854       0.657100
     11 O1           4.1600     0.0300    -0.0350 o          1 854      -0.588000
     12 O            4.5720    -1.5380     1.4670 os         1 854      -0.404900
     13 C1           5.3820    -0.5790     2.1990 c3         1 854       0.150400
     14 C            5.9530    -1.2460     3.4520 c3         1 854      -0.096100
     15 C8           2.0570     1.2730    -1.1260 c3         1 854      -0.166300
     16 C9           1.7430     2.6370    -0.5690 ca         1 854      -0.087300
     17 C14          2.6410     3.2640     0.2740 ca         1 854      -0.108500
     18 C13          2.3530     4.5160     0.7850 ca         1 854      -0.129000
     19 C12          1.1670     5.1410     0.4510 ca         1 854      -0.121000
     20 C11          0.2690     4.5160    -0.3930 ca         1 854      -0.129000
     21 C10          0.5590     3.2660    -0.9080 ca         1 854      -0.108500
     22 H1           0.0290    -1.4730    -1.7970 h1         1 854       0.063700
     23 H2           0.5740    -3.0460    -1.1860 h1         1 854       0.063700
     24 H3           1.8330    -1.4410    -3.4410 hc         1 854       0.050200
     25 H4           0.9450    -2.9670    -3.5980 hc         1 854       0.050200
     26 H5           3.3760    -3.3740    -3.6400 hc         1 854       0.048200
     27 H6           2.6510    -4.0890    -2.1890 hc         1 854       0.048200
     28 H7           4.7400    -2.8680    -1.6500 hc         1 854       0.058700
     29 H8           4.0330    -1.3850    -2.3140 hc         1 854       0.058700
     30 H9           3.0080    -2.9800     0.0570 h1         1 854       0.080700
     31 H10          6.1950    -0.2390     1.5690 h1         1 854       0.054700
     32 H11          4.7690     0.2660     2.4860 h1         1 854       0.054700
     33 H12          5.1400    -1.5940     4.0780 hc         1 854       0.047367
     34 H13          6.5500    -0.5290     4.0030 hc         1 854       0.047367
     35 H14          6.5720    -2.0860     3.1640 hc         1 854       0.047367
     36 H15          3.1300     1.1620    -1.2270 h1         1 854       0.117200
     37 H16          1.5900     1.1620    -2.0970 h1         1 854       0.117200
     38 H17          3.5710     2.7730     0.5360 ha         1 854       0.141500
     39 H18          3.0570     5.0060     1.4460 ha         1 854       0.132000
     40 H19          0.9400     6.1220     0.8530 ha         1 854       0.129000
     41 H20         -0.6600     5.0070    -0.6560 ha         1 854       0.132000
     42 H21         -0.1440     2.7760    -1.5690 ha         1 854       0.141500
@<TRIPOS>BOND
     1     6     7 1
     2     6     5 1
     3     1     2 2
     4     8     7 1
     5     8     9 1
     6     3     2 2
     7     5     4 1
     8     4     2 1
     9     4     9 1
    10     2    15 1
    11     9    10 1
    12    21    20 ar
    13    21    16 ar
    14    10    11 2
    15    10    12 1
    16    15    16 1
    17    20    19 ar
    18    16    17 ar
    19    19    18 ar
    20    17    18 ar
    21    12    13 1
    22    13    14 1
    23     5    22 1
    24     5    23 1
    25     6    24 1
    26     6    25 1
    27     7    26 1
    28     7    27 1
    29     8    28 1
    30     8    29 1
    31     9    30 1
    32    13    31 1
    33    13    32 1
    34    14    33 1
    35    14    34 1
    36    14    35 1
    37    15    36 1
    38    15    37 1
    39    17    38 1
    40    18    39 1
    41    19    40 1
    42    20    41 1
    43    21    42 1
@<TRIPOS>SUBSTRUCTURE
     1 854         1 TEMP              0 ****  ****    0 ROOT
