@<TRIPOS>MOLECULE
854
   42    43     1     0     0
SMALL
bcc


@<TRIPOS>ATOM
      1 O3           0.0000     0.0000     0.0000 o          1 854      -0.585300
      2 S            1.4210     0.0000     0.0000 s6         1 854       0.971900
      3 O2           2.1540     0.0000     1.2170 o          1 854      -0.585300
      4 N            1.8290    -1.4330    -0.7230 n3         1 854      -0.537500
      5 C7           0.8900    -2.1090    -1.6270 c3         1 854       0.241800
      6 C6           1.5950    -2.3820    -2.9590 c3         1 854      -0.049400
      7 C5           2.8870    -3.1610    -2.6970 c3         1 854      -0.018400
      8 C4           3.8190    -2.3240    -1.8180 c3         1 854      -0.040400
      9 C3           3.1410    -2.0480    -0.4780 c3         1 854       0.170500
     10 C2           3.9960    -1.1090     0.3340 c          1 854       0.735100
     11 O1           4.1600     0.0300    -0.0350 o          1 854      -0.626000
     12 O            4.5720    -1.5380     1.4670 os         1 854      -0.392900
     13 C1           5.3820    -0.5790     2.1990 c3         1 854       0.228400
     14 C            5.9530    -1.2460     3.4520 c3         1 854      -0.003100
     15 C8           2.0570     1.2730    -1.1260 c3         1 854       0.040700
     16 C9           1.7430     2.6370    -0.5690 ca         1 854      -0.080300
     17 C14          2.6410     3.2640     0.2740 ca         1 854      -0.086000
     18 C13          2.3530     4.5160     0.7850 ca         1 854      -0.099500
     19 C12          1.1670     5.1410     0.4510 ca         1 854      -0.098000
     20 C11          0.2690     4.5160    -0.3930 ca         1 854      -0.099500
     21 C10          0.5590     3.2660    -0.9080 ca         1 854      -0.086000
     22 H1           0.0290    -1.4730    -1.7970 h1         1 854       0.028700
     23 H2           0.5740    -3.0460    -1.1860 h1         1 854       0.028700
     24 H3           1.8330    -1.4410    -3.4410 hc         1 854       0.019200
     25 H4           0.9450    -2.9670    -3.5980 hc         1 854       0.019200
     26 H5           3.3760    -3.3740    -3.6400 hc         1 854       0.017200
     27 H6           2.6510    -4.0890    -2.1890 hc         1 854       0.017200
     28 H7           4.7400    -2.8680    -1.6500 hc         1 854       0.027200
     29 H8           4.0330    -1.3850    -2.3140 hc         1 854       0.027200
     30 H9           3.0080    -2.9800     0.0570 h1         1 854       0.041700
     31 H10          6.1950    -0.2390     1.5690 h1         1 854       0.013700
     32 H11          4.7690     0.2660     2.4860 h1         1 854       0.013700
     33 H12          5.1400    -1.5940     4.0780 hc         1 854       0.009367
     34 H13          6.5500    -0.5290     4.0030 hc         1 854       0.009367
     35 H14          6.5720    -2.0860     3.1640 hc         1 854       0.009367
     36 H15          3.1300     1.1620    -1.2270 h1         1 854       0.090200
     37 H16          1.5900     1.1620    -2.0970 h1         1 854       0.090200
     38 H17          3.5710     2.7730     0.5360 ha         1 854       0.116500
     39 H18          3.0570     5.0060     1.4460 ha         1 854       0.103000
     40 H19          0.9400     6.1220     0.8530 ha         1 854       0.101000
     41 H20         -0.6600     5.0070    -0.6560 ha         1 854       0.103000
     42 H21         -0.1440     2.7760    -1.5690 ha         1 854       0.116500
@<TRIPOS>BOND
     1     1     2 2   
     2     2     3 2   
     3     2     4 1   
     4     2    15 1   
     5     4     5 1   
     6     4     9 1   
     7     5     6 1   
     8     5    22 1   
     9     5    23 1   
    10     6     7 1   
    11     6    24 1   
    12     6    25 1   
    13     7     8 1   
    14     7    26 1   
    15     7    27 1   
    16     8     9 1   
    17     8    28 1   
    18     8    29 1   
    19     9    10 1   
    20     9    30 1   
    21    10    11 2   
    22    10    12 1   
    23    12    13 1   
    24    13    14 1   
    25    13    31 1   
    26    13    32 1   
    27    14    33 1   
    28    14    34 1   
    29    14    35 1   
    30    15    16 1   
    31    15    36 1   
    32    15    37 1   
    33    16    17 ar  
    34    16    21 ar  
    35    17    18 ar  
    36    17    38 1   
    37    18    19 ar  
    38    18    39 1   
    39    19    20 ar  
    40    19    40 1   
    41    20    21 ar  
    42    20    41 1   
    43    21    42 1   
@<TRIPOS>SUBSTRUCTURE
     1 854         1 TEMP              0 ****  ****    0 ROOT
