@<TRIPOS>MOLECULE
molecule
   39    42     1     0     0
SMALL
bcc


@<TRIPOS>ATOM
      1 C1           0.0000     0.0000     0.0000 c3         1 855      -0.138400
      2 C2           1.5060     0.0000     0.0000 ca         1 855       0.420600
      3 C3           2.1890     0.0000     1.2030 ca         1 855      -0.238300
      4 C4           3.5760     0.0000     1.1980 ca         1 855      -0.105000
      5 C5           4.2330     0.0000    -0.0210 ca         1 855      -0.209300
      6 C6           3.4810    -0.0000    -1.1940 cp         1 855       0.377300
      7 N7           2.1560    -0.0050    -1.1460 nb         1 855      -0.655000
      8 C8           4.1700     0.0000    -2.5080 cp         1 855       0.685000
      9 N9           3.4310     0.0000    -3.6150 nb         1 855      -0.775000
     10 C10          3.9880    -0.0000    -4.8170 ca         1 855       0.737200
     11 C12          1.8250     0.1190    -5.8570 ca         1 855       0.179600
     12 C17          1.2440     0.8500    -4.8220 ca         1 855      -0.267300
     13 C16         -0.1310     0.9500    -4.7600 ca         1 855       0.434200
     14 N15         -0.8920     0.3620    -5.6650 nb         1 855      -0.709000
     15 C14         -0.3800    -0.3380    -6.6590 ca         1 855       0.434200
     16 C13          0.9850    -0.4850    -6.7910 ca         1 855      -0.267300
     17 C18          5.4020     0.0010    -4.9030 ca         1 855      -0.318600
     18 C19          6.0710     0.0010    -6.1310 ca         1 855      -0.092000
     19 C20          7.4350     0.0020    -6.1540 ca         1 855      -0.140000
     20 C21          8.1700     0.0020    -4.9710 ca         1 855      -0.096000
     21 C22          7.5490     0.0010    -3.7580 ca         1 855      -0.179300
     22 C23          6.1470     0.0010    -3.6980 ca         1 855       0.478600
     23 N24          5.4890     0.0050    -2.5310 nb         1 855      -0.764000
     24 N5           3.2100     0.0000    -5.9580 nu         1 855      -0.754300
     25 H1          -0.3610    -0.7210    -0.7240 hc         1 855       0.052367
     26 H1A         -0.3610    -0.2670     0.9860 hc         1 855       0.052367
     27 H1B         -0.3610     0.9870    -0.2620 hc         1 855       0.052367
     28 H3           1.6460     0.0000     2.1410 ha         1 855       0.139000
     29 H4           4.1330     0.0000     2.1270 ha         1 855       0.140000
     30 H5           5.3150     0.0020    -0.0620 ha         1 855       0.163000
     31 H17          1.8630     1.3350    -4.0760 ha         1 855       0.154000
     32 H14         -1.0400    -0.8040    -7.3810 h4         1 855       0.023600
     33 H13          1.3980    -1.0610    -7.6100 ha         1 855       0.154000
     34 H19          5.5100     0.0010    -7.0580 ha         1 855       0.123000
     35 H20          7.9530     0.0030    -7.1050 ha         1 855       0.134000
     36 H21          9.2520     0.0030    -5.0160 ha         1 855       0.136000
     37 H22          8.1340     0.0010    -2.8460 ha         1 855       0.153000
     38 H141         3.6420    -0.0650    -6.8580 hn         1 855       0.460800
     39 H16         -0.5910     1.5160    -3.9600 h4         1 855       0.023600
@<TRIPOS>BOND
     1     1     2 1   
     2     2     3 ar  
     3     2     7 ar  
     4     3     4 ar  
     5     4     5 ar  
     6     5     6 ar  
     7     6     7 ar  
     8     6     8 1   
     9     8     9 ar  
    10     8    23 ar  
    11     9    10 ar  
    12    10    17 ar  
    13    11    12 ar  
    14    11    16 ar  
    15    11    24 1   
    16    12    13 ar  
    17    13    14 ar  
    18    14    15 ar  
    19    15    16 ar  
    20    17    18 ar  
    21    17    22 ar  
    22    18    19 ar  
    23    19    20 ar  
    24    20    21 ar  
    25    21    22 ar  
    26    22    23 ar  
    27    24    10 1   
    28     1    25 1   
    29     1    26 1   
    30     1    27 1   
    31     3    28 1   
    32     4    29 1   
    33     5    30 1   
    34    12    31 1   
    35    15    32 1   
    36    16    33 1   
    37    18    34 1   
    38    19    35 1   
    39    20    36 1   
    40    21    37 1   
    41    24    38 1   
    42    13    39 1   
@<TRIPOS>SUBSTRUCTURE
     1 855         1 TEMP              0 ****  ****    0 ROOT
