@<TRIPOS>MOLECULE
molecule
   28    28     1     0     0
SMALL
bcc


@<TRIPOS>ATOM
      1 C13          0.0000     0.0000     0.0000 c3         1 856       0.138400
      2 C15          5.3010    -2.8050     1.3050 ca         1 856      -0.089500
      3 C01          7.3620    -7.6010     3.5440 c3         1 856       0.140700
      4 O02          6.8790    -6.3610     2.9650 os         1 856      -0.427900
      5 O04          4.8040    -7.0730     3.3000 o          1 856      -0.544000
      6 C05          4.9770    -4.9620     2.3120 ca         1 856      -0.104600
      7 C06          3.5930    -4.7970     2.2360 ca         1 856      -0.091000
      8 C07          3.0660    -3.6420     1.6980 ca         1 856      -0.089500
      9 C08          3.9160    -2.6390     1.2280 ca         1 856      -0.103600
     10 C09          3.3500    -1.4000     0.6520 c          1 856       0.647700
     11 O10          4.0900    -0.5280     0.2440 o          1 856      -0.549000
     12 O11          2.0150    -1.2400     0.5780 os         1 856      -0.415900
     13 C12          1.5310     0.0000     0.0000 c3         1 856       0.153400
     14 O14         -0.4750     0.0000     1.3480 oh         1 856      -0.601800
     15 C16          5.8270    -3.9590     1.8440 ca         1 856      -0.091000
     16 H1          -0.3610    -0.8850    -0.5100 h1         1 856       0.034700
     17 H2          -0.3610     0.8850    -0.5100 h1         1 856       0.034700
     18 H3           5.9600    -2.0270     0.9410 ha         1 856       0.160000
     19 H4           7.0000    -8.4380     2.9590 h1         1 856       0.050700
     20 H5           8.4460    -7.6010     3.5430 h1         1 856       0.050700
     21 H6           7.0020    -7.6890     4.5620 h1         1 856       0.050700
     22 H7           2.9330    -5.5750     2.6010 ha         1 856       0.158500
     23 H8           1.9920    -3.5140     1.6390 ha         1 856       0.160000
     24 H9           1.8920     0.8370     0.5860 h1         1 856       0.060200
     25 H10          1.8920     0.0890    -1.0170 h1         1 856       0.060200
     26 H11         -1.4130     0.1000     1.3510 ho         1 856       0.404000
     27 H12          6.9010    -4.0880     1.9030 ha         1 856       0.158500
     28 C03          5.5430    -6.2010     2.8910 c          1 856       0.644700
@<TRIPOS>BOND
     1    14     1 1   
     2     1    13 1   
     3    13    12 1   
     4    11    10 2   
     5    12    10 1   
     6    10     9 1   
     7     2     9 ar  
     8     2    15 ar  
     9     9     8 ar  
    10    15     6 ar  
    11     8     7 ar  
    12     6     7 ar  
    13     6    28 1   
    14     5    28 2   
    15    28     4 1   
    16     4     3 1   
    17     1    16 1   
    18     1    17 1   
    19     2    18 1   
    20     3    19 1   
    21     3    20 1   
    22     3    21 1   
    23     7    22 1   
    24     8    23 1   
    25    13    24 1   
    26    13    25 1   
    27    14    26 1   
    28    15    27 1   
@<TRIPOS>SUBSTRUCTURE
     1 856         1 TEMP              0 ****  ****    0 ROOT
