@<TRIPOS>MOLECULE
857
   64    64     1     0     0
SMALL
bcc


@<TRIPOS>ATOM
      1 C21        -1.5370    1.4400    1.1420 ca        1 857     -0.097000
      2 C24        -0.3130    1.4520    0.4830 ca        1 857     -0.098000
      3 C25         0.7960    0.8420    1.0950 ca        1 857     -0.140000
      4 C6          0.6980    0.2430    2.3580 ca        1 857     -0.108000
      5 C7         -0.5480    0.2420    2.9950 ca        1 857      0.098000
      6 C10        -1.6800    0.8390    2.4020 ca        1 857     -0.023000
      7 C11         9.3060    7.5350   -1.4380 c2        1 857     -0.034000
      8 N3          9.6040    8.3590   -0.3770 n2        1 857     -0.356000
      9 C12         8.1680    6.8000   -1.5290 c2        1 857     -0.083000
     10 C13         7.0930    6.7780   -0.4930 c3        1 857     -0.035000
     11 C8          7.3980    6.1370    0.7830 c1        1 857     -0.049000
     12 C9          9.8800    9.0880    0.5210 c1        1 857      0.242000
     13 C14         4.6890    4.9670    0.5460 c2        1 857     -0.044000
     14 C15         3.7030    4.0430    0.4230 c2        1 857     -0.118000
     15 C16         2.8680    4.0560   -0.8260 c2        1 857      0.049000
     16 C17         2.8620    5.2030   -1.4860 c1        1 857     -0.118000
     17 C1          3.5410    6.3170   -1.2680 c2        1 857     -0.058000
     18 C18         4.7650    6.1740   -0.3690 c3        1 857      0.071000
     19 C19         2.6800    2.1280    0.2440 c2        1 857     -0.001000
     20 N2          2.0880    0.8030    0.3890 n4        1 857      0.099000
     21 N4          3.4630    2.7990    1.0760 n2        1 857     -0.006000
     22 CL         -3.1830    0.8540    3.1550 cl        1 857      0.099000
     23 O4          2.3230    2.7830   -0.9900 os        1 857     -0.114000
     24 O2         10.0710    7.0190   -3.6520 o         1 857     -0.397000
     25 N5         11.1130    6.6670   -6.3020 n3        1 857     -0.134000
     26 C22         9.9230    7.0260   -6.6540 c2        1 857      0.114000
     27 O3         -0.7220   -0.3940    4.2260 os        1 857     -0.137000
     28 C23         0.4130   -0.6840    4.8900 c1        1 857      0.055000
     29 N1         -0.6220   -5.6910    5.6830 n3        1 857     -0.292000
     30 C2         -0.5380   -4.9410    6.9040 c3        1 857     -0.036000
     31 C3          0.4900   -3.7890    6.9780 c3        1 857     -0.271000
     32 C4          0.3630   -2.8700    5.8670 c1        1 857     -0.038000
     33 C5          0.1100   -1.4520    6.1320 c3        1 857     -0.307000
     34 C26        -1.3820   -5.0780    4.6270 c3        1 857     -0.130000
     35 H21        -2.4130    1.9150    0.6630 ha        1 857      0.188000
     36 H24        -0.2270    1.9420   -0.5020 ha        1 857      0.171000
     37 H6          1.5540   -0.2240    2.8840 ha        1 857      0.206000
     38 H12         7.9880    6.1730   -2.4210 ha        1 857      0.179000
     39 H8          6.8040    7.8490   -0.2100 h1        1 857      0.160000
     40 H9          8.4120    6.2390    1.1890 ha        1 857      0.092000
     41 H14         5.5180    4.8830    1.2760 ha        1 857      0.213000
     42 H17         3.2190    7.3300   -1.5360 ha        1 857      0.185000
     43 H1          4.7280    7.0890    0.3010 h1        1 857      0.138000
     44 HN2         2.7460    0.1990    0.9100 hn        1 857      0.285000
     45 HN5        11.3460    7.8360   -2.2710 h4        1 857      0.139000
     46 H221        9.1500    7.2310   -5.8740 h4        1 857      0.212500
     47 H222       11.8450    6.4720   -6.9670 hn        1 857      0.294000
     48 H223        9.6450    7.1390   -7.7270 h4        1 857      0.212500
     49 H231        0.6070    1.5710    5.7650 ha        1 857      0.004500
     50 H232        0.2760    1.2880    6.2850 ha        1 857      0.004500
     51 H21A       -0.9640   -1.3570    6.4760 hc        1 857      0.146000
     52 H22         0.2890   -5.9600    5.3630 hn        1 857      0.166000
     53 H31        -1.5530   -4.5180    7.1470 h1        1 857      0.101000
     54 H32        -0.2590   -5.6670    7.7220 h1        1 857      0.101000
     55 H41         0.4080   -3.3240    7.9990 hc        1 857      0.111000
     56 H42         1.5270   -4.2320    6.8890 hc        1 857      0.111000
     57 H5          0.7610   -1.0320    6.9530 hc        1 857      0.146000
     58 H261       -1.0080   -4.0540    4.3410 h1        1 857      0.075000
     59 H262       -2.4520   -4.9850    4.9540 h1        1 857      0.075000
     60 H263       -1.3410   -5.7410    3.7240 h1        1 857      0.075000
     61 H224        1.9380    0.4240   -0.5600 hn        1 857      0.285000
     62 H52        11.3620    6.5670   -5.3230 hn        1 857      0.294000
     63 O1          5.9610    6.1580   -1.1370 os        1 857     -0.245000
     64 C20        10.3260    7.4640   -2.5240 c2        1 857      0.272000
@<TRIPOS>BOND
     1    1    2 1
     2    1    6 1
     3    1   35 1
     4    2    3 1
     5    2   36 1
     6    3    4 1
     7    3   20 1
     8    4    5 1
     9    4   37 1
    10    5    6 1
    11    5   27 1
    12    6   22 1
    13    7    8 1
    14    7    9 1
    15    7   64 1
    16    8   12 1
    17    9   10 1
    18    9   38 1
    19   10   11 1
    20   10   39 1
    21   10   63 1
    22   11   40 1
    23   13   14 1
    24   13   18 1
    25   13   41 1
    26   14   15 1
    27   14   21 1
    28   15   16 1
    29   15   23 1
    30   16   17 1
    31   17   18 1
    32   17   42 1
    33   18   43 1
    34   18   63 1
    35   19   20 1
    36   19   21 1
    37   19   23 1
    38   20   44 1
    39   20   61 1
    40   24   64 1
    41   25   26 1
    42   25   47 1
    43   25   62 1
    44   26   46 1
    45   26   48 1
    46   27   28 1
    47   28   33 1
    48   29   30 1
    49   29   34 1
    50   29   52 1
    51   30   31 1
    52   30   53 1
    53   30   54 1
    54   31   32 1
    55   31   55 1
    56   31   56 1
    57   32   33 1
    58   33   51 1
    59   33   57 1
    60   34   58 1
    61   34   59 1
    62   34   60 1
    63   45   64 1
    64   49   50 1
@<TRIPOS>SUBSTRUCTURE
     1 857         1 TEMP              0 ****  ****    0 ROOT
