@<TRIPOS>MOLECULE
859
   40    42     1     0     0
SMALL
bcc


@<TRIPOS>ATOM
      1 C1           0.0000     0.0000     0.0000 ca         1 859       0.741900
      2 N2           1.3470     0.0000     0.0000 nb         1 859      -0.733000
      3 C3           1.9250     0.0000     1.2240 ca         1 859       0.556200
      4 C4           1.2000     0.0010     2.4020 ca         1 859      -0.458600
      5 C5          -0.1730     0.0000     2.2670 ca         1 859       0.537200
      6 N6          -0.8090     0.0010     1.0770 nb         1 859      -0.682000
      7 N7           3.3290    -0.0000     1.3190 nu         1 859      -0.359300
      8 C8           4.3530     0.0000     0.3450 ca         1 859       0.092600
      9 C9           5.5870    -0.5970     0.6030 ca         1 859      -0.316600
     10 C10          6.5840    -0.5860    -0.3720 ca         1 859      -0.029000
     11 C11          6.3480     0.0230    -1.6050 ca         1 859      -0.106000
     12 C12          5.1140     0.6210    -1.8620 ca         1 859       0.007000
     13 C13          4.1170     0.6100    -0.8880 ca         1 859      -0.110000
     14 N14         -0.6310    -0.0000    -1.2630 nu         1 859      -0.284300
     15 C15         -0.1300    -0.0010    -2.5780 ca         1 859       0.023600
     16 C16         -0.8580     0.6020    -3.6060 ca         1 859      -0.138000
     17 C17         -0.3600     0.6020    -4.9090 ca         1 859      -0.044000
     18 C18          0.8650    -0.0010    -5.1870 ca         1 859      -0.146000
     19 C19          1.5950    -0.6050    -4.1630 ca         1 859       0.137100
     20 C20          1.0970    -0.6050    -2.8590 ca         1 859      -0.173000
     21 O21          2.7930    -1.1910    -4.4340 oh         1 859      -0.510100
     22 C22          5.8650    -1.2420     1.8790 c          1 859       0.385700
     23 N23          5.5640    -2.5940     1.9980 nz         1 859       0.180600
     24 O24          6.3380    -0.6050     2.8340 o          1 859      -0.398100
     25 H4           1.6810     0.0010     3.3730 ha         1 859       0.137000
     26 H5          -0.7750     0.0010     3.1670 h4         1 859      -0.015900
     27 HN7          3.6690    -0.0010     2.2600 hn         1 859       0.259800
     28 H10          7.5420    -1.0500    -0.1720 ha         1 859       0.106000
     29 H11          7.1230     0.0320    -2.3620 ha         1 859       0.130000
     30 H12          4.9300     1.0950    -2.8200 ha         1 859       0.130000
     31 H13          3.1590     1.0740    -1.0880 ha         1 859       0.162000
     32 HN14        -1.6310     0.0000    -1.2130 hn         1 859       0.286800
     33 H16         -1.8100     1.0710    -3.3910 ha         1 859       0.117000
     34 H17         -0.9270     1.0700    -5.7050 ha         1 859       0.114000
     35 H18          1.2520    -0.0010    -6.1990 ha         1 859       0.121000
     36 H20          1.6650    -1.0740    -2.0640 ha         1 859       0.128000
     37 HO21         2.6520    -2.0810    -4.7120 ho         1 859       0.408000
     38 H231         4.9840    -2.7380     2.8000 hn         1 859       0.247133
     39 H232         6.4110    -3.1170     2.1010 hn         1 859       0.247133
     40 H233         5.0810    -2.9020     1.1770 hn         1 859       0.247133
@<TRIPOS>BOND
     1     1     2 ar  
     2     1     6 ar  
     3     1    14 1   
     4     2     3 ar  
     5     3     4 ar  
     6     3     7 1   
     7     4     5 ar  
     8     4    25 1   
     9     5     6 ar  
    10     5    26 1   
    11     7     8 1   
    12     7    27 1   
    13     8     9 ar  
    14     8    13 ar  
    15     9    10 ar  
    16     9    22 1   
    17    10    11 ar  
    18    10    28 1   
    19    11    12 ar  
    20    11    29 1   
    21    12    13 ar  
    22    12    30 1   
    23    13    31 1   
    24    14    15 1   
    25    14    32 1   
    26    15    16 ar  
    27    15    20 ar  
    28    16    17 ar  
    29    16    33 1   
    30    17    18 ar  
    31    17    34 1   
    32    18    19 ar  
    33    18    35 1   
    34    19    20 ar  
    35    19    21 1   
    36    20    36 1   
    37    21    37 1   
    38    22    23 1   
    39    22    24 2   
    40    23    38 1   
    41    23    39 1   
    42    23    40 1   
@<TRIPOS>SUBSTRUCTURE
     1 859         1 TEMP              0 ****  ****    0 ROOT
