@<TRIPOS>MOLECULE
85A
   56    59     1     0     0
SMALL
bcc


@<TRIPOS>ATOM
      1 C1         -0.1380    0.2130   -0.1160 ca        1 85A     -0.243000
      2 C2          1.2450    0.0460   -0.0990 ca        1 85A      0.135100
      3 C3          1.9990    0.2170    1.1000 ca        1 85A     -0.012400
      4 C4          1.2980    0.6250    2.2480 ca        1 85A     -0.061000
      5 C5         -0.0810    0.8140    2.2260 ca        1 85A     -0.062600
      6 C6         -0.8390    0.6060    1.0470 ca        1 85A      0.183600
      7 N7         -2.2120    0.8630    1.0170 nh        1 85A     -0.729600
      8 CL8        -0.8440    1.3050    3.6690 cl        1 85A     -0.090400
      9 C9          9.0630   -1.9850   -1.8560 cg        1 85A      0.158800
     10 N10         9.8070   -2.1990   -2.7230 n1        1 85A     -0.347800
     11 N11         3.4010    0.0280    1.1050 n         1 85A     -0.417100
     12 C12         4.0370   -0.5390    2.2080 c         1 85A      0.779100
     13 N13         5.3990   -0.9390    2.1810 n         1 85A     -0.547400
     14 O14         3.5000   -0.6520    3.3360 o         1 85A     -0.618100
     15 C15         6.2610   -1.1710    1.1210 ca        1 85A      0.505900
     16 N16         5.8860   -0.9660   -0.1770 nb        1 85A     -0.784000
     17 C17         6.8190   -1.2380   -1.1260 ca        1 85A      0.612300
     18 C18         8.1380   -1.7170   -0.8090 ca        1 85A      0.299000
     19 N19         8.5010   -1.9130    0.4850 nb        1 85A     -0.536000
     20 C20         7.5990   -1.6510    1.4280 ca        1 85A      0.194900
     21 O21         1.9670   -0.3070   -1.2250 os        1 85A     -0.344900
     22 C22         1.3000   -0.1350   -2.4840 c3        1 85A      0.132400
     23 C23         4.2080   -1.6000   -2.8120 c3        1 85A     -0.114400
     24 C24         5.2970   -0.5470   -2.8800 c3        1 85A      0.138400
     25 O25         6.5670   -1.0700   -2.4590 os        1 85A     -0.425100
     26 C26         2.3650   -0.0350   -3.5620 c3        1 85A     -0.088400
     27 C27         3.1100   -1.3270   -3.8190 c3        1 85A     -0.071400
     28 C28        -3.0210    0.1820    0.0280 c3        1 85A      0.232100
     29 C29        -4.4810    0.1560    0.3690 ca        1 85A     -0.070300
     30 C30        -5.2010   -1.0410    0.2880 ca        1 85A     -0.235300
     31 C31        -6.5770   -1.0170    0.5760 ca        1 85A      0.394700
     32 N32        -7.2450    0.0980    0.9330 nb        1 85A     -0.657000
     33 C33        -6.5370    1.2410    1.0100 ca        1 85A      0.394700
     34 C34        -5.1600    1.3240    0.7370 ca        1 85A     -0.235300
     35 H20         7.9220   -1.8180    2.4700 h4        1 85A      0.045100
     36 H13         5.7500   -1.1840    3.0880 hn        1 85A      0.353500
     37 H11         3.8130   -0.0590    0.1980 hn        1 85A      0.353500
     38 H4          1.8440    0.7850    3.1970 ha        1 85A      0.186000
     39 H1         -0.6950    0.0380   -1.0480 ha        1 85A      0.145000
     40 H221        0.6900    0.8070   -2.4750 h1        1 85A      0.046200
     41 H222        0.6320   -1.0220   -2.6480 h1        1 85A      0.046200
     42 H261        1.8420    0.2770   -4.5050 hc        1 85A      0.055700
     43 H262        3.0890    0.7760   -3.2890 hc        1 85A      0.055700
     44 H271        2.3870   -2.1860   -3.8020 hc        1 85A      0.047200
     45 H272        3.5550   -1.2880   -4.8490 hc        1 85A      0.047200
     46 H231        4.6570   -2.6070   -3.0210 hc        1 85A      0.067700
     47 H232        3.7690   -1.6290   -1.7800 hc        1 85A      0.067700
     48 H241        5.5210   -0.2600   -3.9460 h1        1 85A      0.068700
     49 H242        5.0340    0.3660   -2.2890 h1        1 85A      0.068700
     50 HN7        -2.6400    0.9280    1.9190 hn        1 85A      0.420800
     51 H281       -2.8980    0.7350   -0.9510 h1        1 85A      0.052200
     52 H282       -2.6580   -0.8770   -0.1350 h1        1 85A      0.052200
     53 H34        -4.6350    2.2870    0.8080 ha        1 85A      0.150500
     54 H33        -7.1080    2.1400    1.3050 h4        1 85A      0.026100
     55 H31        -7.1810   -1.9410    0.5210 h4        1 85A      0.026100
     56 H30        -4.7100   -1.9820    0.0070 ha        1 85A      0.150500
@<TRIPOS>BOND
     1    1    2 ar  
     2    1    6 ar  
     3    1   39 1   
     4    2    3 ar  
     5    2   21 1   
     6    3    4 ar  
     7    3   11 1   
     8    4    5 ar  
     9    4   38 1   
    10    5    6 ar  
    11    5    8 1   
    12    6    7 1   
    13    7   28 1   
    14    7   50 1   
    15    9   10 3   
    16    9   18 1   
    17   11   12 1   
    18   11   37 1   
    19   12   13 1   
    20   12   14 2   
    21   13   15 1   
    22   13   36 1   
    23   15   16 ar  
    24   15   20 ar  
    25   16   17 ar  
    26   17   18 ar  
    27   17   25 1   
    28   18   19 ar  
    29   19   20 ar  
    30   20   35 1   
    31   21   22 1   
    32   22   26 1   
    33   22   40 1   
    34   22   41 1   
    35   23   24 1   
    36   23   27 1   
    37   23   46 1   
    38   23   47 1   
    39   24   25 1   
    40   24   48 1   
    41   24   49 1   
    42   26   27 1   
    43   26   42 1   
    44   26   43 1   
    45   27   44 1   
    46   27   45 1   
    47   28   29 1   
    48   28   51 1   
    49   28   52 1   
    50   29   30 ar  
    51   29   34 ar  
    52   30   31 ar  
    53   30   56 1   
    54   31   32 ar  
    55   31   55 1   
    56   32   33 ar  
    57   33   34 ar  
    58   33   54 1   
    59   34   53 1   
@<TRIPOS>SUBSTRUCTURE
     1 85A         1 TEMP              0 ****  ****    0 ROOT
