@<TRIPOS>MOLECULE
molecule
   52    55     1     0     0
SMALL
bcc


@<TRIPOS>ATOM
      1 C1           0.0000     0.0000     0.0000 ca         1 85C      -0.122000
      2 C2           1.3840     0.0000     0.0000 ca         1 85C      -0.091300
      3 C3           2.0800     0.0000     1.1970 ca         1 85C      -0.099000
      4 C4          -0.6970     0.0060     1.1910 ca         1 85C      -0.056000
      5 C5          -0.0010     0.0120     2.4010 ca         1 85C      -0.152600
      6 C6           1.3950     0.0010     2.3900 ca         1 85C      -0.091300
      7 N1           0.6050     0.0300     4.6360 n          1 85C      -0.494800
      8 N2           2.6730    -0.8710     6.9640 ns         1 85C      -0.572500
      9 N3           2.3780     1.3790    -1.7310 ns         1 85C      -0.602900
     10 C7           1.8330     0.0130     3.8330 c3         1 85C       0.135300
     11 C8          -0.4530     0.0100     3.8060 c          1 85C       0.719100
     12 C9           0.5420     0.0650     6.0990 c3         1 85C       0.079700
     13 C10         -0.0800    -1.2380     6.6150 c3         1 85C      -0.112400
     14 C11          0.8460    -2.4000     6.2620 c3         1 85C      -0.155400
     15 C12          2.2220    -2.1250     6.8080 c          1 85C       0.692500
     16 C13          1.9320     0.2050     6.6600 c          1 85C       0.687500
     17 C14          2.1350    -0.0020    -1.3060 c3         1 85C       0.177300
     18 C15          3.0390     1.6240    -2.8800 c          1 85C       0.782100
     19 O2           2.3920     1.3130     6.8390 o          1 85C      -0.590500
     20 C17          4.7050     4.2350    -4.6700 ca         1 85C      -0.156000
     21 C18          5.2850     4.4850    -5.8990 ca         1 85C       0.043400
     22 Cl1          6.3580     5.8350    -6.0940 cl         1 85C      -0.109400
     23 C19          5.0100     3.6590    -6.9760 ca         1 85C      -0.091300
     24 C22          5.6440     3.9350    -8.3150 c3         1 85C      -0.046800
     25 C20          4.1560     2.5830    -6.8240 ca         1 85C      -0.103000
     26 C21          3.5740     2.3270    -5.5980 ca         1 85C      -0.122000
     27 C16          3.8520     3.1510    -4.5140 ca         1 85C       0.077600
     28 N4           3.2630     2.8940    -3.2710 ns         1 85C      -0.491100
     29 O4           3.4330     0.7000    -3.5640 o          1 85C      -0.643100
     30 O3           2.9380    -3.0560     7.1120 o          1 85C      -0.598500
     31 H1          -0.5390    -0.0000    -0.9400 ha         1 85C       0.146000
     32 H2           3.1630    -0.0000     1.1940 ha         1 85C       0.143000
     33 H3          -1.7800     0.0060     1.1860 ha         1 85C       0.154000
     34 H4           3.5970    -0.7330     7.3220 hn         1 85C       0.348500
     35 H5           2.0690     2.1400    -1.1590 hn         1 85C       0.313500
     36 H6           2.4080    -0.8790     4.0530 h1         1 85C       0.069200
     37 H7           2.4210     0.9000     4.0340 h1         1 85C       0.069200
     38 H8          -0.0630     0.9040     6.4200 h1         1 85C       0.107700
     39 H9          -0.1970    -1.1820     7.6900 hc         1 85C       0.079200
     40 H10         -1.0450    -1.3890     6.1460 hc         1 85C       0.079200
     41 H11          0.4610    -3.3130     6.7000 hc         1 85C       0.088200
     42 H12          0.9000    -2.5040     5.1850 hc         1 85C       0.088200
     43 H13          3.0820    -0.5120    -1.1770 h1         1 85C       0.064200
     44 H14          1.5490    -0.5130    -2.0600 h1         1 85C       0.064200
     45 H15          4.9230     4.8790    -3.8270 ha         1 85C       0.142000
     46 H16          6.7220     3.8910    -8.2200 hc         1 85C       0.048033
     47 H17          5.3510     4.9200    -8.6570 hc         1 85C       0.048033
     48 H18          5.3140     3.1910    -9.0300 hc         1 85C       0.048033
     49 H19          3.9420     1.9400    -7.6690 ha         1 85C       0.141000
     50 H20          2.9060     1.4820    -5.4800 ha         1 85C       0.165000
     51 H21          2.9980     3.6550    -2.6770 hn         1 85C       0.319500
     52 O1          -1.6150     0.0180     4.1630 o          1 85C      -0.620500
@<TRIPOS>BOND
     1    14    13 1   
     2    14    15 1   
     3    13    12 1   
     4    30    15 2   
     5    15     8 1   
     6    12     7 1   
     7    12    16 1   
     8    52    11 2   
     9     8    16 1   
    10     7    11 1   
    11     7    10 1   
    12    16    19 2   
    13    11     5 1   
    14    10     6 1   
    15     5     6 ar  
    16     5     4 ar  
    17     6     3 ar  
    18     4     1 ar  
    19     3     2 ar  
    20     1     2 ar  
    21     2    17 1   
    22    17     9 1   
    23     9    18 1   
    24    18    29 2   
    25    18    28 1   
    26    28    27 1   
    27    27    20 ar  
    28    27    26 ar  
    29    20    21 ar  
    30    26    25 ar  
    31    21    22 1   
    32    21    23 ar  
    33    25    23 ar  
    34    23    24 1   
    35     1    31 1   
    36     3    32 1   
    37     4    33 1   
    38     8    34 1   
    39     9    35 1   
    40    10    36 1   
    41    10    37 1   
    42    12    38 1   
    43    13    39 1   
    44    13    40 1   
    45    14    41 1   
    46    14    42 1   
    47    17    43 1   
    48    17    44 1   
    49    20    45 1   
    50    24    46 1   
    51    24    47 1   
    52    24    48 1   
    53    25    49 1   
    54    26    50 1   
    55    28    51 1   
@<TRIPOS>SUBSTRUCTURE
     1 85C         1 TEMP              0 ****  ****    0 ROOT
