@<TRIPOS>MOLECULE
molecule
   26    27     1     0     0
SMALL
bcc


@<TRIPOS>ATOM
      1 C4           0.0000     0.0000     0.0000 c3         1 85D      -0.025200
      2 C5           1.5350     0.0000     0.0000 cy         1 85D      -0.088700
      3 C6           2.0820     1.4380    -0.1050 cy         1 85D      -0.080000
      4 C7           2.1310     0.0000     1.4180 cy         1 85D      -0.090400
      5 C8           1.2060     2.3770    -0.9370 c3         1 85D      -0.076100
      6 C9           3.5640     1.5100    -0.4840 c3         1 85D      -0.076100
      7 C3          -0.5090     0.9810     1.0290 c2         1 85D      -0.153200
      8 Br1         -0.0840     1.8790     4.5160 br         1 85D      -0.180400
      9 C2           0.3450     1.7130     1.7050 c2         1 85D      -0.120400
     10 C1           1.8230     1.5170     1.4100 cy         1 85D      -0.041500
     11 H1          -0.3600     0.2870    -0.9810 hc         1 85D       0.055700
     12 H2          -0.3600    -0.9930     0.2400 hc         1 85D       0.055700
     13 H3           2.0040    -0.7010    -0.6800 hc         1 85D       0.062700
     14 H4           3.1910    -0.2230     1.4390 hc         1 85D       0.061200
     15 H5           1.5370    -0.5560     2.1340 hc         1 85D       0.061200
     16 H6           1.1720     2.0260    -1.9620 hc         1 85D       0.037867
     17 H7           1.6210     3.3770    -0.9120 hc         1 85D       0.037867
     18 H8           0.2030     2.3920    -0.5280 hc         1 85D       0.037867
     19 H9           3.6640     1.4520    -1.5610 hc         1 85D       0.037867
     20 H10          3.9810     2.4460    -0.1330 hc         1 85D       0.037867
     21 H11          4.0940     0.6840    -0.0260 hc         1 85D       0.037867
     22 H12          0.5340     3.5710     2.7240 h1         1 85D       0.075700
     23 H13         -1.1330     3.0230     2.5040 h1         1 85D       0.075700
     24 H14         -1.5610     0.9980     1.2860 ha         1 85D       0.130000
     25 H15          2.5210     2.1290     1.9690 hc         1 85D       0.069700
     26 C10         -0.1220     2.7090     2.7350 c3         1 85D       0.056200
@<TRIPOS>BOND
     1     8    26 1
     2    26     9 1
     3     4    10 1
     4     4     2 1
     5     9    10 1
     6     9     7 2
     7    10     3 1
     8     7     1 1
     9     1     2 1
    10     2     3 1
    11     3     6 1
    12     3     5 1
    13     1    11 1
    14     1    12 1
    15     2    13 1
    16     4    14 1
    17     4    15 1
    18     5    16 1
    19     5    17 1
    20     5    18 1
    21     6    19 1
    22     6    20 1
    23     6    21 1
    24    26    22 1
    25    26    23 1
    26     7    24 1
    27    10    25 1
@<TRIPOS>SUBSTRUCTURE
     1 85D         1 TEMP              0 ****  ****    0 ROOT
