@<TRIPOS>MOLECULE
molecule
   64    68     1     0     0
SMALL
bcc


@<TRIPOS>ATOM
      1 CBD          0.0000     0.0000     0.0000 c3         1 85M       0.138800
      2 CBE          1.5440     0.0000     0.0000 c3         1 85M      -0.083900
      3 CBF          1.9450     0.0000     1.4900 c3         1 85M      -0.083900
      4 CBG          0.6100     0.0010     2.2640 c3         1 85M       0.138800
      5 NBC         -0.3770    -0.5810     1.3150 n3         1 85M      -0.686600
      6 CBB         -1.7490    -0.2080     1.6850 c3         1 85M       0.151800
      7 CBA         -2.7420    -1.0160     0.8470 c3         1 85M       0.143400
      8 OAZ         -2.6260    -2.4020     1.1790 os         1 85M      -0.309900
      9 CAW         -3.4430    -3.2650     0.5190 ca         1 85M       0.153100
     10 CAX         -4.3360    -2.7880    -0.4310 ca         1 85M      -0.194500
     11 CAY         -5.1660    -3.6670    -1.0980 ca         1 85M      -0.067000
     12 CAV         -3.3830    -4.6240     0.7910 ca         1 85M      -0.194500
     13 CAU         -4.2160    -5.4990     0.1200 ca         1 85M      -0.067000
     14 CAT         -5.1090    -5.0200    -0.8220 ca         1 85M      -0.131300
     15 CAI         -6.0170    -5.9770    -1.5510 c3         1 85M       0.213400
     16 OAH         -6.4990    -6.9680    -0.6440 os         1 85M      -0.322900
     17 CAE         -7.1440    -8.0460    -1.1650 ca         1 85M       0.161100
     18 CAD         -7.9270    -8.8220    -0.3190 ca         1 85M      -0.176000
     19 CAC         -8.5960    -9.9300    -0.8110 ca         1 85M       0.135100
     20 OAG         -9.3610   -10.6870     0.0190 oh         1 85M      -0.518100
     21 CAB         -8.4840   -10.2640    -2.1530 ca         1 85M      -0.198000
     22 CAA         -7.7080    -9.4920    -2.9930 ca         1 85M      -0.079000
     23 CAF         -7.0380    -8.3800    -2.5040 ca         1 85M      -0.171300
     24 CAK         -6.2080    -7.5590    -3.4570 c3         1 85M      -0.014400
     25 CAR         -5.4200    -8.4900    -4.3800 c3         1 85M      -0.085100
     26 CAJ         -5.2330    -6.6820    -2.6670 c3         1 85M      -0.051400
     27 CAL         -4.6180    -5.6540    -3.5820 ca         1 85M      -0.079300
     28 CAM         -3.2450    -5.6090    -3.7440 ca         1 85M      -0.110500
     29 CAN         -2.6780    -4.6690    -4.5820 ca         1 85M      -0.149500
     30 CAO         -3.4870    -3.7700    -5.2620 ca         1 85M       0.102100
     31 OAS         -2.9320    -2.8430    -6.0870 oh         1 85M      -0.523100
     32 CAP         -4.8640    -3.8170    -5.0990 ca         1 85M      -0.149500
     33 CAQ         -5.4260    -4.7630    -4.2640 ca         1 85M      -0.110500
     34 H1          -0.3760     1.0120    -0.0850 h1         1 85M       0.040700
     35 H2          -0.3760    -0.6180    -0.8060 h1         1 85M       0.040700
     36 H3           1.9180     0.8910    -0.4890 hc         1 85M       0.048200
     37 H4           1.9180    -0.8910    -0.4890 hc         1 85M       0.048200
     38 H5           2.5140    -0.8910     1.7240 hc         1 85M       0.048200
     39 H6           2.5150     0.8910     1.7240 hc         1 85M       0.048200
     40 H7           0.3270     1.0130     2.5260 h1         1 85M       0.040700
     41 H8           0.6890    -0.6180     3.1500 h1         1 85M       0.040700
     42 H10         -1.9090    -0.4170     2.7360 h1         1 85M       0.047700
     43 H11         -1.8980     0.8490     1.5000 h1         1 85M       0.047700
     44 H12         -2.5240    -0.8770    -0.2050 h1         1 85M       0.036700
     45 H13         -3.7490    -0.6780     1.0550 h1         1 85M       0.036700
     46 H14         -4.3810    -1.7280    -0.6480 ha         1 85M       0.141000
     47 H15         -5.8640    -3.2950    -1.8380 ha         1 85M       0.137500
     48 H16         -2.6840    -5.0000     1.5290 ha         1 85M       0.141000
     49 H17         -4.1710    -6.5600     0.3330 ha         1 85M       0.137500
     50 H18         -6.8530    -5.4380    -1.9800 h1         1 85M       0.054700
     51 H19         -8.0130    -8.5600     0.7290 ha         1 85M       0.156000
     52 H20        -10.2720   -10.5020    -0.1380 ho         1 85M       0.421000
     53 H21         -9.0060   -11.1300    -2.5420 ha         1 85M       0.138000
     54 H22         -7.6220    -9.7550    -4.0400 ha         1 85M       0.136000
     55 H23         -6.8610    -6.9270    -4.0470 hc         1 85M       0.060700
     56 H24         -6.0980    -8.9630    -5.0800 hc         1 85M       0.040367
     57 H25         -4.9240    -9.2500    -3.7880 hc         1 85M       0.040367
     58 H26         -4.6800    -7.9160    -4.9250 hc         1 85M       0.040367
     59 H27         -4.4590    -7.3010    -2.2310 hc         1 85M       0.078700
     60 H28         -2.6140    -6.3110    -3.2130 ha         1 85M       0.135000
     61 H29         -1.6030    -4.6330    -4.7090 ha         1 85M       0.140500
     62 H30         -2.8980    -3.1850    -6.9660 ho         1 85M       0.418000
     63 H31         -5.4980    -3.1180    -5.6310 ha         1 85M       0.140500
     64 H32         -6.5010    -4.8010    -4.1350 ha         1 85M       0.135000
@<TRIPOS>BOND
     1     3     4 1
     2     3     2 1
     3     4     5 1
     4     2     1 1
     5     5     1 1
     6     5     6 1
     7     6     7 1
     8     7     8 1
     9     8     9 1
    10     9    12 ar
    11     9    10 ar
    12    12    13 ar
    13    10    11 ar
    14    13    14 ar
    15    11    14 ar
    16    14    15 1
    17    20    19 1
    18    33    32 ar
    19    33    27 ar
    20    19    18 ar
    21    19    21 ar
    22    32    30 ar
    23    18    17 ar
    24    21    22 ar
    25    26    15 1
    26    26    27 1
    27    26    24 1
    28    15    16 1
    29    17    16 1
    30    17    23 ar
    31    22    23 ar
    32    27    28 ar
    33    23    24 1
    34    25    24 1
    35    30    31 1
    36    30    29 ar
    37    28    29 ar
    38     1    34 1
    39     1    35 1
    40     2    36 1
    41     2    37 1
    42     3    38 1
    43     3    39 1
    44     4    40 1
    45     4    41 1
    46     6    42 1
    47     6    43 1
    48     7    44 1
    49     7    45 1
    50    10    46 1
    51    11    47 1
    52    12    48 1
    53    13    49 1
    54    15    50 1
    55    18    51 1
    56    20    52 1
    57    21    53 1
    58    22    54 1
    59    24    55 1
    60    25    56 1
    61    25    57 1
    62    25    58 1
    63    26    59 1
    64    28    60 1
    65    29    61 1
    66    31    62 1
    67    32    63 1
    68    33    64 1
@<TRIPOS>SUBSTRUCTURE
     1 85M         1 TEMP              0 ****  ****    0 ROOT
