@<TRIPOS>MOLECULE
85M
   64    68     1     0     0
SMALL
bcc


@<TRIPOS>ATOM
      1 CBD          0.0000     0.0000     0.0000 c3         1 85M       0.146300
      2 CBE          1.5440     0.0000     0.0000 c3         1 85M      -0.025900
      3 CBF          1.9450     0.0000     1.4900 c3         1 85M      -0.025900
      4 CBG          0.6100     0.0010     2.2640 c3         1 85M       0.146300
      5 NBC         -0.3770    -0.5810     1.3150 n3         1 85M      -0.530600
      6 CBB         -1.7490    -0.2080     1.6850 c3         1 85M       0.148800
      7 CBA         -2.7420    -1.0160     0.8470 c3         1 85M       0.199400
      8 OAZ         -2.6260    -2.4020     1.1790 os         1 85M      -0.286900
      9 CAW         -3.4430    -3.2650     0.5190 ca         1 85M       0.160100
     10 CAX         -4.3360    -2.7880    -0.4310 ca         1 85M      -0.181000
     11 CAY         -5.1660    -3.6670    -1.0980 ca         1 85M      -0.037500
     12 CAV         -3.3830    -4.6240     0.7910 ca         1 85M      -0.181000
     13 CAU         -4.2160    -5.4990     0.1200 ca         1 85M      -0.037500
     14 CAT         -5.1090    -5.0200    -0.8220 ca         1 85M      -0.152300
     15 CAI         -6.0170    -5.9770    -1.5510 c3         1 85M       0.254400
     16 OAH         -6.4990    -6.9680    -0.6440 os         1 85M      -0.300900
     17 CAE         -7.1440    -8.0460    -1.1650 ca         1 85M       0.179100
     18 CAD         -7.9270    -8.8220    -0.3190 ca         1 85M      -0.173000
     19 CAC         -8.5960    -9.9300    -0.8110 ca         1 85M       0.157100
     20 OAG         -9.3610   -10.6870     0.0190 oh         1 85M      -0.499100
     21 CAB         -8.4840   -10.2640    -2.1530 ca         1 85M      -0.187000
     22 CAA         -7.7080    -9.4920    -2.9930 ca         1 85M      -0.047000
     23 CAF         -7.0380    -8.3800    -2.5040 ca         1 85M      -0.190300
     24 CAK         -6.2080    -7.5590    -3.4570 c3         1 85M       0.022600
     25 CAR         -5.4200    -8.4900    -4.3800 c3         1 85M      -0.001100
     26 CAJ         -5.2330    -6.6820    -2.6670 c3         1 85M      -0.029400
     27 CAL         -4.6180    -5.6540    -3.5820 ca         1 85M      -0.091300
     28 CAM         -3.2450    -5.6090    -3.7440 ca         1 85M      -0.079500
     29 CAN         -2.6780    -4.6690    -4.5820 ca         1 85M      -0.135000
     30 CAO         -3.4870    -3.7700    -5.2620 ca         1 85M       0.120100
     31 OAS         -2.9320    -2.8430    -6.0870 oh         1 85M      -0.501100
     32 CAP         -4.8640    -3.8170    -5.0990 ca         1 85M      -0.135000
     33 CAQ         -5.4260    -4.7630    -4.2640 ca         1 85M      -0.079500
     34 H1          -0.3760     1.0120    -0.0850 h1         1 85M       0.012450
     35 H2          -0.3760    -0.6180    -0.8060 h1         1 85M       0.012450
     36 H3           1.9180     0.8910    -0.4890 hc         1 85M       0.017700
     37 H4           1.9180    -0.8910    -0.4890 hc         1 85M       0.017700
     38 H5           2.5140    -0.8910     1.7240 hc         1 85M       0.017700
     39 H6           2.5150     0.8910     1.7240 hc         1 85M       0.017700
     40 H7           0.3270     1.0130     2.5260 h1         1 85M       0.012450
     41 H8           0.6890    -0.6180     3.1500 h1         1 85M       0.012450
     42 H10         -1.9090    -0.4170     2.7360 h1         1 85M       0.018200
     43 H11         -1.8980     0.8490     1.5000 h1         1 85M       0.018200
     44 H12         -2.5240    -0.8770    -0.2050 h1         1 85M       0.004200
     45 H13         -3.7490    -0.6780     1.0550 h1         1 85M       0.004200
     46 H14         -4.3810    -1.7280    -0.6480 ha         1 85M       0.119500
     47 H15         -5.8640    -3.2950    -1.8380 ha         1 85M       0.109000
     48 H16         -2.6840    -5.0000     1.5290 ha         1 85M       0.119500
     49 H17         -4.1710    -6.5600     0.3330 ha         1 85M       0.109000
     50 H18         -6.8530    -5.4380    -1.9800 h1         1 85M       0.022700
     51 H19         -8.0130    -8.5600     0.7290 ha         1 85M       0.129000
     52 H20        -10.2720   -10.5020    -0.1380 ho         1 85M       0.403000
     53 H21         -9.0060   -11.1300    -2.5420 ha         1 85M       0.114000
     54 H22         -7.6220    -9.7550    -4.0400 ha         1 85M       0.110000
     55 H23         -6.8610    -6.9270    -4.0470 hc         1 85M       0.036700
     56 H24         -6.0980    -8.9630    -5.0800 hc         1 85M       0.010033
     57 H25         -4.9240    -9.2500    -3.7880 hc         1 85M       0.010033
     58 H26         -4.6800    -7.9160    -4.9250 hc         1 85M       0.010033
     59 H27         -4.4590    -7.3010    -2.2310 hc         1 85M       0.054700
     60 H28         -2.6140    -6.3110    -3.2130 ha         1 85M       0.109500
     61 H29         -1.6030    -4.6330    -4.7090 ha         1 85M       0.114000
     62 H30         -2.8980    -3.1850    -6.9660 ho         1 85M       0.402000
     63 H31         -5.4980    -3.1180    -5.6310 ha         1 85M       0.114000
     64 H32         -6.5010    -4.8010    -4.1350 ha         1 85M       0.109500
@<TRIPOS>BOND
     1     1     2 1   
     2     1     5 1   
     3     1    34 1   
     4     1    35 1   
     5     2     3 1   
     6     2    36 1   
     7     2    37 1   
     8     3     4 1   
     9     3    38 1   
    10     3    39 1   
    11     4     5 1   
    12     4    40 1   
    13     4    41 1   
    14     5     6 1   
    15     6     7 1   
    16     6    42 1   
    17     6    43 1   
    18     7     8 1   
    19     7    44 1   
    20     7    45 1   
    21     8     9 1   
    22     9    10 ar  
    23     9    12 ar  
    24    10    11 ar  
    25    10    46 1   
    26    11    14 ar  
    27    11    47 1   
    28    12    13 ar  
    29    12    48 1   
    30    13    14 ar  
    31    13    49 1   
    32    14    15 1   
    33    15    16 1   
    34    15    26 1   
    35    15    50 1   
    36    16    17 1   
    37    17    18 ar  
    38    17    23 ar  
    39    18    19 ar  
    40    18    51 1   
    41    19    20 1   
    42    19    21 ar  
    43    20    52 1   
    44    21    22 ar  
    45    21    53 1   
    46    22    23 ar  
    47    22    54 1   
    48    23    24 1   
    49    24    25 1   
    50    24    26 1   
    51    24    55 1   
    52    25    56 1   
    53    25    57 1   
    54    25    58 1   
    55    26    27 1   
    56    26    59 1   
    57    27    28 ar  
    58    27    33 ar  
    59    28    29 ar  
    60    28    60 1   
    61    29    30 ar  
    62    29    61 1   
    63    30    31 1   
    64    30    32 ar  
    65    31    62 1   
    66    32    33 ar  
    67    32    63 1   
    68    33    64 1   
@<TRIPOS>SUBSTRUCTURE
     1 85M         1 TEMP              0 ****  ****    0 ROOT
