@<TRIPOS>MOLECULE
molecule
   33    35     1     0     0
SMALL
bcc


@<TRIPOS>ATOM
      1 C1           0.0000     0.0000     0.0000 ca         1 85P       0.003100
      2 C2           1.3980     0.0000     0.0000 ca         1 85P      -0.155000
      3 C3          -0.7010     0.0020     1.1870 ca         1 85P       0.026000
      4 C4          -0.0030     0.0040     2.3980 ca         1 85P      -0.144300
      5 C5           2.0990     0.0000     1.1650 ca         1 85P      -0.177300
      6 C6           1.4160     0.0020     2.3960 ca         1 85P       0.431600
      7 C7          -0.7030     0.0070     3.6840 ca         1 85P      -0.016600
      8 C8           0.0760     0.0080     4.8320 ca         1 85P      -0.237300
      9 C9           1.4730     0.0070     4.7170 cp         1 85P       0.492800
     10 C10          2.2930     0.0090     5.9530 cp         1 85P      -0.132500
     11 C11          3.6850     0.0080     5.8680 ca         1 85P      -0.093500
     12 C12          1.6750     0.0180     7.2020 ca         1 85P      -0.093500
     13 C13          2.4420     0.0200     8.3480 ca         1 85P      -0.136000
     14 C14          3.8240     0.0130     8.2600 ca         1 85P       0.027400
     15 C15          4.4430     0.0100     7.0210 ca         1 85P      -0.136000
     16 Cl16         4.7840     0.0160     9.7060 cl         1 85P      -0.135400
     17 O17         -0.6740     0.0050    -1.1790 os         1 85P      -0.458800
     18 C18         -2.1780     0.0080     3.7550 c          1 85P       0.879200
     19 O19         -2.7950    -0.1040     4.9470 o          1 85P      -0.814300
     20 O20         -2.8360     0.1100     2.7380 o          1 85P      -0.814300
     21 S21         -0.9810    -1.3830    -1.7220 s6         1 85P       1.740200
     22 O22         -1.1680    -2.2240    -0.5920 o          1 85P      -0.627300
     23 O23         -1.9650    -1.2100    -2.7330 o          1 85P      -0.627300
     24 N24          2.0830     0.0050     3.5510 nb         1 85P      -0.729000
     25 H1           2.0270     0.2660    -0.8410 ha         1 85P       0.132000
     26 H2          -1.6190     0.5450     0.9950 ha         1 85P       0.195000
     27 H3           3.1780    -0.0310     1.0720 ha         1 85P       0.138000
     28 H4          -0.3880     0.1530     5.8010 ha         1 85P       0.168000
     29 H5           4.1700     0.0050     4.8990 ha         1 85P       0.160000
     30 H6           0.5940     0.0230     7.2730 ha         1 85P       0.160000
     31 H7           1.9630     0.0240     9.3200 ha         1 85P       0.137500
     32 H8           5.5240     0.0070     6.9570 ha         1 85P       0.137500
     33 F1           0.3470    -1.9090    -2.4650 f          1 85P      -0.297900
@<TRIPOS>BOND
     1    23    21 2
     2    22    21 2
     3    21    17 1
     4    17     1 1
     5     1     2 ar
     6     1     3 ar
     7     2     5 ar
     8     3     4 ar
     9     5     6 ar
    10     4     6 ar
    11     4     7 ar
    12     6    24 ar
    13    20    18 1
    14     7    18 1
    15     7     8 ar
    16    18    19 1
    17    24     9 ar
    18     8     9 ar
    19     9    10 1
    20    12    10 ar
    21    12    13 ar
    22    10    11 ar
    23    13    14 ar
    24    11    15 ar
    25    14    15 ar
    26    14    16 1
    27     2    25 1
    28     3    26 1
    29     5    27 1
    30     8    28 1
    31    11    29 1
    32    12    30 1
    33    13    31 1
    34    15    32 1
    35    21    33 1
@<TRIPOS>SUBSTRUCTURE
     1 85P         1 TEMP              0 ****  ****    0 ROOT
