@<TRIPOS>MOLECULE
molecule
   66    71     1     0     0
SMALL
bcc


@<TRIPOS>ATOM
      1 C5           0.0000     0.0000     0.0000 cc         1 85S      -0.250600
      2 C6           1.4100     0.0000     0.0000 cc         1 85S       0.809200
      3 N1           2.0580     0.0000     1.1550 nd         1 85S      -0.800000
      4 C7          -2.0010     0.0000     0.9790 cc         1 85S      -0.005300
      5 C8          -2.2170    -0.0020    -0.3830 cd         1 85S      -0.168000
      6 C9          -0.9620    -0.0050    -1.0130 cd         1 85S      -0.037200
      7 C11         -0.7090    -0.0120    -2.4670 cd         1 85S      -0.007100
      8 C12         -3.0530     0.0010     2.0160 ca         1 85S      -0.012800
      9 N3           0.1060     0.0000     2.3860 nc         1 85S      -0.554800
     10 C15          0.0270    -0.5660    -4.5080 cc         1 85S       0.326200
     11 N4          -0.6590     0.0010     1.2120 na         1 85S       0.237200
     12 C2           1.4090     0.0000     2.3170 cd         1 85S       0.674900
     13 N10          2.1080    -0.0000    -1.1920 nv         1 85S      -1.070500
     14 N13         -1.1790     0.8880    -3.3760 na         1 85S       0.077400
     15 N14         -0.7020     0.5130    -4.6380 nd         1 85S      -0.511800
     16 C16          0.0540    -0.9270    -3.1600 cc         1 85S      -0.335300
     17 C17         -2.0330     2.0430    -3.0860 c3         1 85S       0.082000
     18 C18         -3.3990     1.8510    -3.7530 c3         1 85S      -0.129900
     19 C19         -4.2560     3.0960    -3.5090 c3         1 85S       0.137400
     20 O20         -3.5790     4.2470    -4.0190 os         1 85S      -0.417600
     21 C21         -2.3170     4.5030    -3.4000 c3         1 85S       0.137400
     22 C22         -1.3820     3.3140    -3.6380 c3         1 85S      -0.129900
     23 C23         -2.7080     0.1120     3.3650 ca         1 85S      -0.135000
     24 C24         -3.6920     0.1110     4.3320 ca         1 85S      -0.104000
     25 C25         -5.0230     0.0020     3.9710 ca         1 85S      -0.176000
     26 C26         -5.3770    -0.1090     2.6310 ca         1 85S       0.101600
     27 C27         -4.3960    -0.1040     1.6520 ca         1 85S      -0.137000
     28 N28         -6.7220    -0.2210     2.2720 nh         1 85S      -0.597000
     29 C29         -7.5880    -0.1990     3.4590 c3         1 85S       0.146300
     30 C30         -9.0540    -0.1400     3.0170 c3         1 85S       0.105500
     31 N31         -9.3050    -1.2490     2.0840 n          1 85S      -0.499800
     32 C32         -8.3940    -1.4170     0.9420 c3         1 85S       0.105500
     33 C33         -6.9540    -1.4260     1.4650 c3         1 85S       0.146300
     34 C34        -10.3440    -2.0880     2.2710 c          1 85S       0.663100
     35 C35        -10.5820    -3.2180     1.3020 c3         1 85S      -0.171100
     36 O36        -11.0840    -1.9340     3.2170 o          1 85S      -0.608100
     37 H1          -3.1760    -0.1080    -0.8750 ha         1 85S       0.166000
     38 H2           0.5310    -1.0890    -5.3120 h4         1 85S       0.046100
     39 H3           1.9820     0.0000     3.2360 h5         1 85S       0.078100
     40 H4           2.4670    -0.8580    -1.5600 hn         1 85S       0.452800
     41 H5           2.3100     0.8650    -1.6530 hn         1 85S       0.452800
     42 H6           0.5750    -1.7770    -2.7360 ha         1 85S       0.152000
     43 H7          -2.1650     2.1410    -2.0150 h1         1 85S       0.076700
     44 H8          -3.8910     0.9850    -3.3250 hc         1 85S       0.067200
     45 H9          -3.2640     1.7080    -4.8180 hc         1 85S       0.067200
     46 H10         -5.2070     2.9830    -4.0160 h1         1 85S       0.049950
     47 H11         -4.4210     3.2170    -2.4450 h1         1 85S       0.049950
     48 H12         -1.8800     5.3960    -3.8300 h1         1 85S       0.049950
     49 H13         -2.4600     4.6410    -2.3350 h1         1 85S       0.049950
     50 H14         -1.2090     3.1990    -4.7010 hc         1 85S       0.067200
     51 H15         -0.4410     3.4880    -3.1290 hc         1 85S       0.067200
     52 H16         -1.6660     0.1970     3.6520 ha         1 85S       0.162000
     53 H17         -3.4210     0.1970     5.3780 ha         1 85S       0.134000
     54 H18         -5.7910    -0.0000     4.7350 ha         1 85S       0.138000
     55 H19         -4.6700    -0.1910     0.6080 ha         1 85S       0.136000
     56 H20         -7.4230    -1.0970     4.0420 h1         1 85S       0.051450
     57 H21         -7.3560     0.6750     4.0570 h1         1 85S       0.051450
     58 H22         -9.6980    -0.2400     3.8830 h1         1 85S       0.063950
     59 H23         -9.2460     0.8030     2.5210 h1         1 85S       0.063950
     60 H24         -8.6050    -2.3560     0.4440 h1         1 85S       0.063950
     61 H25         -8.5240    -0.5940     0.2500 h1         1 85S       0.063950
     62 H26         -6.2670    -1.4370     0.6270 h1         1 85S       0.051450
     63 H27         -6.7980    -2.3060     2.0780 h1         1 85S       0.051450
     64 H28        -10.6390    -2.8240     0.2950 hc         1 85S       0.060700
     65 H29        -11.5130    -3.7140     1.5490 hc         1 85S       0.060700
     66 H30         -9.7660    -3.9270     1.3670 hc         1 85S       0.060700
@<TRIPOS>BOND
     1    10    15 2   
     2    10    16 1   
     3    15    14 1   
     4    16     7 2   
     5    22    21 1   
     6    22    17 1   
     7    14     7 1   
     8    14    17 1   
     9     7     6 1   
    10    21    20 1   
    11    17    18 1   
    12    20    19 1   
    13     6     5 1   
    14     6     1 2   
    15     5     4 2   
    16    18    19 1   
    17    23    24 ar  
    18    23     8 ar  
    19    13     2 1   
    20     1     2 1   
    21     1    11 1   
    22    24    25 ar  
    23     4     8 1   
    24     4    11 1   
    25     2     3 2   
    26     8    27 ar  
    27    11     9 1   
    28    25    26 ar  
    29     3    12 1   
    30     9    12 2   
    31    27    26 ar  
    32    26    28 1   
    33    28    29 1   
    34    28    33 1   
    35    29    30 1   
    36    33    32 1   
    37    30    31 1   
    38    32    31 1   
    39    31    34 1   
    40    34    36 2   
    41    34    35 1   
    42     5    37 1   
    43    10    38 1   
    44    12    39 1   
    45    13    40 1   
    46    13    41 1   
    47    16    42 1   
    48    17    43 1   
    49    18    44 1   
    50    18    45 1   
    51    19    46 1   
    52    19    47 1   
    53    21    48 1   
    54    21    49 1   
    55    22    50 1   
    56    22    51 1   
    57    23    52 1   
    58    24    53 1   
    59    25    54 1   
    60    27    55 1   
    61    29    56 1   
    62    29    57 1   
    63    30    58 1   
    64    30    59 1   
    65    32    60 1   
    66    32    61 1   
    67    33    62 1   
    68    33    63 1   
    69    35    64 1   
    70    35    65 1   
    71    35    66 1   
@<TRIPOS>SUBSTRUCTURE
     1 85S         1 TEMP              0 ****  ****    0 ROOT
