@<TRIPOS>MOLECULE
molecule
   54    59     1     0     0
SMALL
bcc


@<TRIPOS>ATOM
      1 C4           0.0000     0.0000     0.0000 ca         1 85V      -0.120000
      2 C7          -0.7350     0.0140     3.6870 cp         1 85V      -0.036000
      3 C6           0.0040     0.0100     2.4000 cp         1 85V      -0.045000
      4 C9          -2.4500     0.9300     5.1050 ca         1 85V       0.123400
      5 C20         -6.9090     4.3470     8.3910 c3         1 85V       0.090100
      6 C21         -6.8900     2.9660     7.6750 c3         1 85V       0.100100
      7 C8          -1.7540     0.9330     3.8960 ca         1 85V      -0.069000
      8 C18         -4.8360     4.2490     7.4040 c3         1 85V       0.099400
      9 C26          2.1350     0.0020    -1.3070 cx         1 85V      -0.085700
     10 C1           1.3980     0.0110     2.3940 ca         1 85V      -0.108000
     11 C2           2.0810     0.0000     1.1950 ca         1 85V      -0.120000
     12 C3           1.3840     0.0000     0.0000 ca         1 85V      -0.032300
     13 C5          -0.6920     0.0040     1.1940 ca         1 85V      -0.108000
     14 C10         -2.1110    -0.0040     6.0990 ca         1 85V      -0.089200
     15 C11         -1.0860    -0.9140     5.8810 ca         1 85V      -0.114000
     16 C12         -0.4050    -0.9110     4.6830 ca         1 85V       0.040400
     17 Cl           0.8660    -2.0600     4.4090 cl         1 85V      -0.098400
     18 N13         -2.9650     0.2410     7.1610 na         1 85V      -0.259300
     19 C14         -3.7730     1.2790     6.8020 cc         1 85V       0.640100
     20 N15         -3.4740     1.6790     5.5940 nd         1 85V      -0.689100
     21 O16         -4.7440     1.8130     7.5790 os         1 85V      -0.353400
     22 C17         -5.4890     2.9000     7.0290 c3         1 85V       0.137100
     23 O19         -5.5240     4.6840     8.6050 os         1 85V      -0.362600
     24 O22         -6.9510     1.9980     8.7430 os         1 85V      -0.369600
     25 C23         -7.8840     2.5390     9.7030 c3         1 85V       0.104400
     26 C24         -7.5630     4.0480     9.7570 c3         1 85V       0.119100
     27 O25         -6.6500     4.3290    10.8200 oh         1 85V      -0.562800
     28 C27          2.6950     1.3390    -1.7980 cx         1 85V      -0.119900
     29 C28          1.4840     0.7130    -2.4950 cx         1 85V      -0.119900
     30 C29          2.9520    -1.2570    -1.5990 c3         1 85V       0.183400
     31 O30          2.0720    -2.3720    -1.7540 oh         1 85V      -0.601800
     32 H1          -0.5410    -0.0050    -0.9390 ha         1 85V       0.133500
     33 H2          -7.4430     5.1010     7.8260 h1         1 85V       0.062700
     34 H3          -7.6930     2.8550     6.9570 h1         1 85V       0.069700
     35 H4          -1.9340     1.7160     3.1690 ha         1 85V       0.153000
     36 H6          -4.9810     4.9690     6.6080 h1         1 85V       0.069200
     37 H7           1.9450     0.0110     3.3300 ha         1 85V       0.137500
     38 H8           3.1640     0.0000     1.1900 ha         1 85V       0.133500
     39 H9          -1.7760     0.0040     1.1930 ha         1 85V       0.137500
     40 H10         -0.8270    -1.6330     6.6490 ha         1 85V       0.142000
     41 H11         -2.9830    -0.2500     8.0330 hn         1 85V       0.315700
     42 H13         -5.5740     2.8070     5.9530 h1         1 85V       0.089700
     43 H14         -8.9020     2.3830     9.3660 h1         1 85V       0.060700
     44 H15         -7.7280     2.0860    10.6750 h1         1 85V       0.060700
     45 H16         -8.4740     4.6230     9.8710 h1         1 85V       0.041700
     46 H17         -7.0780     4.8630    11.4690 ho         1 85V       0.398000
     47 H18          2.4810     2.1940    -1.1690 hc         1 85V       0.077950
     48 H19          3.6290     1.2820    -2.3430 hc         1 85V       0.077950
     49 H20          1.6790     0.2750    -3.4660 hc         1 85V       0.077950
     50 H21          0.5310     1.1870    -2.2920 hc         1 85V       0.077950
     51 H22          3.6320    -1.4450    -0.7770 h1         1 85V       0.022700
     52 H23          3.5200    -1.1160    -2.5110 h1         1 85V       0.022700
     53 H24          2.5740    -3.1420    -1.9640 ho         1 85V       0.400000
     54 H5          -3.7810     4.1100     7.6070 h1         1 85V       0.069200
@<TRIPOS>BOND
     1    29    28 1   
     2    29     9 1   
     3    13     1 ar  
     4    13     3 ar  
     5     1    12 ar  
     6     8    22 1   
     7     8    23 1   
     8    19    21 1   
     9    19    18 1   
    10    19    20 2   
    11    21    22 1   
    12    18    14 1   
    13    22     6 1   
    14    20     4 1   
    15     4    14 ar  
    16     4     7 ar  
    17    14    15 ar  
    18     7     2 ar  
    19    15    16 ar  
    20     2    16 ar  
    21     2     3 1   
    22    16    17 1   
    23    28     9 1   
    24     3    10 ar  
    25    12     9 1   
    26    12    11 ar  
    27     9    30 1   
    28    23     5 1   
    29    10    11 ar  
    30    30    31 1   
    31     6     5 1   
    32     6    24 1   
    33     5    26 1   
    34    24    25 1   
    35    25    26 1   
    36    26    27 1   
    37     1    32 1   
    38     5    33 1   
    39     6    34 1   
    40     7    35 1   
    41     8    54 1   
    42     8    36 1   
    43    10    37 1   
    44    11    38 1   
    45    13    39 1   
    46    15    40 1   
    47    18    41 1   
    48    22    42 1   
    49    25    43 1   
    50    25    44 1   
    51    26    45 1   
    52    27    46 1   
    53    28    47 1   
    54    28    48 1   
    55    29    49 1   
    56    29    50 1   
    57    30    51 1   
    58    30    52 1   
    59    31    53 1   
@<TRIPOS>SUBSTRUCTURE
     1 85V         1 TEMP              0 ****  ****    0 ROOT
