@<TRIPOS>MOLECULE
85X
   47    53     1     0     0
SMALL
bcc


@<TRIPOS>ATOM
      1 OAC          0.0000     0.0000     0.0000 o          1 85X      -0.408000
      2 CAQ          1.2170     0.0000     0.0000 c2         1 85X       0.287000
      3 NAP          1.9830     0.0000     1.1030 ns         1 85X      -0.007000
      4 CAN          3.3920    -0.0020     0.6920 c3         1 85X      -0.020000
      5 CAR          3.3900    -0.0020    -0.8170 ca         1 85X      -0.058000
      6 CAS          2.0550    -0.0080    -1.2080 ca         1 85X      -0.117000
      7 CAY          1.7370    -0.0100    -2.5850 cp         1 85X       0.019000
      8 CAT          0.4630    -0.0150    -3.3220 cq         1 85X      -0.088000
      9 CAI         -0.8750    -0.0210    -2.9270 ca         1 85X      -0.027000
     10 CAE         -1.8700    -0.0250    -3.8800 ca         1 85X      -0.143000
     11 CAG         -1.5460    -0.0250    -5.2290 ca         1 85X      -0.063000
     12 CAK         -0.2280    -0.0200    -5.6340 ca         1 85X      -0.133000
     13 CAV          0.7920    -0.0140    -4.6870 ca         1 85X      -0.120000
     14 NBB          2.1680    -0.0090    -4.8000 na         1 85X       0.271000
     15 CAA          2.9050    -0.0060    -6.0670 c3         1 85X      -0.253000
     16 CAZ          2.7510    -0.0060    -3.5440 ca         1 85X      -0.146000
     17 CBA          4.0930    -0.0010    -3.1360 ca         1 85X      -0.105000
     18 CAX          4.4030    -0.0040    -1.7680 cp         1 85X      -0.047000
     19 CAU          5.8760     0.0040    -1.6760 cp         1 85X      -0.077000
     20 CAJ          6.7680     0.0060    -0.6070 ca         1 85X      -0.041000
     21 CAF          8.1260     0.0140    -0.8490 ca         1 85X      -0.129000
     22 CAH          8.6020     0.0210    -2.1520 ca         1 85X      -0.069000
     23 CAL          7.7300     0.0200    -3.2180 ca         1 85X      -0.120000
     24 CAW          6.3560     0.0110    -2.9940 ca         1 85X      -0.125000
     25 NBC          5.2720     0.0030    -3.8530 na         1 85X       0.271000
     26 CAO          5.3630     0.0020    -5.3140 c3         1 85X      -0.223000
     27 CAM          5.3780    -1.4410    -5.8240 c3         1 85X       0.031000
     28 CAD          5.3280    -1.4430    -7.2940 c1         1 85X      -0.174000
     29 NAB          5.3090    -1.4490    -8.4300 n1         1 85X      -0.041000
     30 H1           3.8840     0.8850     1.0730 h1         1 85X       0.063000
     31 H2          -1.1280    -0.0220    -1.8740 ha         1 85X       0.145000
     32 H3          -2.9100    -0.0290    -3.5770 ha         1 85X       0.107000
     33 H4          -2.3310    -0.0280    -5.9740 ha         1 85X       0.099000
     34 H5           0.0140    -0.0200    -6.6900 ha         1 85X       0.103000
     35 H6           3.0130    -1.0230    -6.4240 h1         1 85X       0.073500
     36 H7           3.8860     0.4280    -5.9130 DU         1 85X       0.152000
     37 H8           2.3620     0.5790    -6.7990 h1         1 85X       0.073500
     38 H9           6.3950     0.0010     0.4100 ha         1 85X       0.102000
     39 H10          8.8240     0.0150    -0.0210 ha         1 85X       0.107000
     40 H11          9.6700     0.0270    -2.3380 ha         1 85X       0.104000
     41 H12          8.1130     0.0250    -4.2310 ha         1 85X       0.103000
     42 H13          6.2950     0.4640    -5.6180 h1         1 85X       0.088000
     43 H14          4.5320     0.5590    -5.7280 DU         1 85X       0.180000
     44 H15          4.7200    -2.0460    -5.2120 hc         1 85X       0.088500
     45 H16          6.3860    -1.8330    -5.7680 hc         1 85X       0.088500
     46 H17          1.6550    -0.0000     2.0490 hn         1 85X       0.116000
     47 H18          3.8820    -0.8900     1.0740 h1         1 85X       0.063000
@<TRIPOS>BOND
     1     1     2 1   
     2     2     3 1   
     3     2     6 1   
     4     3     4 1   
     5     3    46 1   
     6     4     5 1   
     7     4    30 1   
     8     4    47 1   
     9     5     6 1   
    10     5    18 1   
    11     6     7 1   
    12     7     8 1   
    13     7    16 1   
    14     8     9 1   
    15     8    13 1   
    16     9    10 1   
    17     9    31 1   
    18    10    11 1   
    19    10    32 1   
    20    11    12 1   
    21    11    33 1   
    22    12    13 1   
    23    12    34 1   
    24    13    14 1   
    25    14    15 1   
    26    14    16 1   
    27    15    35 1   
    28    15    36 1   
    29    15    37 1   
    30    16    17 1   
    31    17    18 1   
    32    17    25 1   
    33    18    19 1   
    34    19    20 1   
    35    19    24 1   
    36    20    21 1   
    37    20    38 1   
    38    21    22 1   
    39    21    39 1   
    40    22    23 1   
    41    22    40 1   
    42    23    24 1   
    43    23    41 1   
    44    24    25 1   
    45    25    26 1   
    46    26    27 1   
    47    26    42 1   
    48    26    43 1   
    49    27    28 1   
    50    27    44 1   
    51    27    45 1   
    52    28    29 1   
    53    36    43 1   
@<TRIPOS>SUBSTRUCTURE
     1 85X         1 TEMP              0 ****  ****    0 ROOT
