@<TRIPOS>MOLECULE
molecule
   47    52     1     0     0
SMALL
bcc


@<TRIPOS>ATOM
      1 OAC          0.0000     0.0000     0.0000 o          1 85X      -0.640500
      2 CAQ          1.2170     0.0000     0.0000 c          1 85X       0.724100
      3 NAP          1.9830     0.0000     1.1030 ns         1 85X      -0.586900
      4 CAN          3.3920    -0.0020     0.6920 c3         1 85X       0.144300
      5 CAR          3.3900    -0.0020    -0.8170 ca         1 85X      -0.063300
      6 CAS          2.0550    -0.0080    -1.2080 ca         1 85X      -0.136600
      7 CAY          1.7370    -0.0100    -2.5850 cp         1 85X       0.006000
      8 CAT          0.4630    -0.0150    -3.3220 cp         1 85X      -0.095000
      9 CAI         -0.8750    -0.0210    -2.9270 ca         1 85X      -0.051000
     10 CAE         -1.8700    -0.0250    -3.8800 ca         1 85X      -0.170000
     11 CAG         -1.5460    -0.0250    -5.2290 ca         1 85X      -0.088000
     12 CAK         -0.2280    -0.0200    -5.6340 ca         1 85X      -0.167000
     13 CAV          0.7920    -0.0140    -4.6870 ca         1 85X       0.007800
     14 NBB          2.1680    -0.0090    -4.8000 na         1 85X      -0.077300
     15 CAA          2.9050    -0.0060    -6.0670 c3         1 85X      -0.056400
     16 CAZ          2.7510    -0.0060    -3.5440 ca         1 85X      -0.029200
     17 CBA          4.0930    -0.0010    -3.1360 ca         1 85X       0.008800
     18 CAX          4.4030    -0.0040    -1.7680 cp         1 85X      -0.056000
     19 CAU          5.8760     0.0040    -1.6760 cp         1 85X      -0.083000
     20 CAJ          6.7680     0.0060    -0.6070 ca         1 85X      -0.073000
     21 CAF          8.1260     0.0140    -0.8490 ca         1 85X      -0.156000
     22 CAH          8.6020     0.0210    -2.1520 ca         1 85X      -0.094000
     23 CAL          7.7300     0.0200    -3.2180 ca         1 85X      -0.155000
     24 CAW          6.3560     0.0110    -2.9940 ca         1 85X       0.000800
     25 NBC          5.2720     0.0030    -3.8530 na         1 85X      -0.077300
     26 CAO          5.3630     0.0020    -5.3140 c3         1 85X      -0.028700
     27 CAM          5.3780    -1.4410    -5.8240 c3         1 85X      -0.050300
     28 CAD          5.3280    -1.4430    -7.2940 c1         1 85X       0.199700
     29 NAB          5.3090    -1.4490    -8.4300 n1         1 85X      -0.356800
     30 H1           3.8840     0.8850     1.0730 h1         1 85X       0.058700
     31 H2          -1.1280    -0.0220    -1.8740 ha         1 85X       0.172000
     32 H3          -2.9100    -0.0290    -3.5770 ha         1 85X       0.135000
     33 H4          -2.3310    -0.0280    -5.9740 ha         1 85X       0.131000
     34 H5           0.0140    -0.0200    -6.6900 ha         1 85X       0.127000
     35 H6           3.0130    -1.0230    -6.4240 h1         1 85X       0.077700
     36 H7           3.8860     0.4280    -5.9130 h1         1 85X       0.077700
     37 H8           2.3620     0.5790    -6.7990 h1         1 85X       0.077700
     38 H9           6.3950     0.0010     0.4100 ha         1 85X       0.132000
     39 H10          8.8240     0.0150    -0.0210 ha         1 85X       0.135000
     40 H11          9.6700     0.0270    -2.3380 ha         1 85X       0.135000
     41 H12          8.1130     0.0250    -4.2310 ha         1 85X       0.128000
     42 H13          6.2950     0.4640    -5.6180 h1         1 85X       0.111200
     43 H14          4.5320     0.5590    -5.7280 h1         1 85X       0.111200
     44 H15          4.7200    -2.0460    -5.2120 hc         1 85X       0.092200
     45 H16          6.3860    -1.8330    -5.7680 hc         1 85X       0.092200
     46 H17          1.6550    -0.0000     2.0490 hn         1 85X       0.351500
     47 H18          3.8820    -0.8900     1.0740 h1         1 85X       0.058700
@<TRIPOS>BOND
     1    29    28 3
     2    22    21 ar
     3    22    23 ar
     4    21    20 ar
     5    28    27 1
     6    23    24 ar
     7    20    19 ar
     8    24    19 ar
     9    24    25 1
    10    19    18 1
    11    27    26 1
    12    25    26 1
    13    25    17 1
    14    18    17 ar
    15    18     5 ar
    16     4     5 1
    17     4     3 1
    18    17    16 ar
    19     5     6 ar
    20     3     2 1
    21    16     7 ar
    22    16    14 1
    23     6     2 1
    24     6     7 ar
    25    15    14 1
    26     2     1 2
    27     7     8 1
    28    14    13 1
    29     8    13 ar
    30     8     9 ar
    31    13    12 ar
    32     9    10 ar
    33    12    11 ar
    34    10    11 ar
    35     4    30 1
    36     9    31 1
    37    10    32 1
    38    11    33 1
    39    12    34 1
    40    15    35 1
    41    15    36 1
    42    15    37 1
    43    20    38 1
    44    21    39 1
    45    22    40 1
    46    23    41 1
    47    26    42 1
    48    26    43 1
    49    27    44 1
    50    27    45 1
    51     3    46 1
    52     4    47 1
@<TRIPOS>SUBSTRUCTURE
     1 85X         1 TEMP              0 ****  ****    0 ROOT
