@<TRIPOS>MOLECULE
molecule
   50    53     1     0     0
SMALL
bcc


@<TRIPOS>ATOM
      1 C1           0.0000     0.0000     0.0000 c3         1 85Z      -0.053800
      2 C2           1.5080     0.0000     0.0000 ca         1 85Z      -0.016300
      3 C3           2.1990     0.0000     1.1940 ca         1 85Z      -0.171000
      4 C4           3.5850     0.0010     1.1940 ca         1 85Z       0.139900
      5 C5           4.2820     0.0020    -0.0030 ca         1 85Z      -0.183000
      6 C6           3.6000     0.0030    -1.2010 ca         1 85Z      -0.090000
      7 C7           2.2060    -0.0050    -1.2080 ca         1 85Z      -0.052800
      8 C8           1.4670    -0.0110    -2.4920 cc         1 85Z      -0.173400
      9 C9           1.3770    -1.1480    -3.2570 cd         1 85Z       0.042600
     10 C10          0.6790    -1.0700    -4.4910 ca         1 85Z      -0.141800
     11 C11          0.3910    -2.2330    -5.2200 ca         1 85Z      -0.060000
     12 C12         -0.3080    -2.1460    -6.3880 ca         1 85Z      -0.178000
     13 C13         -0.7280    -0.9080    -6.8710 ca         1 85Z       0.144100
     14 C14         -0.4290     0.2540    -6.1780 ca         1 85Z      -0.179000
     15 C15          0.2870     0.1860    -4.9940 ca         1 85Z       0.164100
     16 O16          0.6300     1.3190    -4.3340 os         1 85Z      -0.319200
     17 C17          0.7990     1.2000    -2.9960 c          1 85Z       0.744800
     18 O18          0.4140     2.0680    -2.2330 o          1 85Z      -0.555500
     19 O19         -1.4350    -0.8400    -8.0280 oh         1 85Z      -0.518100
     20 C20          2.0000    -2.4410    -2.8000 c3         1 85Z       0.005100
     21 C21          0.9750    -3.2570    -2.0550 ca         1 85Z      -0.131300
     22 C22          0.2600    -4.2380    -2.7200 ca         1 85Z      -0.124000
     23 C23         -0.6810    -4.9880    -2.0450 ca         1 85Z      -0.138500
     24 C24         -0.9090    -4.7560    -0.6850 ca         1 85Z       0.000200
     25 C25         -0.1820    -3.7650    -0.0200 ca         1 85Z      -0.138500
     26 C26          0.7580    -3.0260    -0.7070 ca         1 85Z      -0.124000
     27 C27         -1.9110    -5.5520     0.0420 ce         1 85Z      -0.189200
     28 C28         -2.1290    -5.3260     1.3550 cf         1 85Z      -0.130200
     29 C29         -3.1250    -6.1170     2.0770 c          1 85Z       0.863800
     30 O30         -3.7560    -6.9780     1.4950 o          1 85Z      -0.835300
     31 O31         -3.3430    -5.8900     3.3890 o          1 85Z      -0.835300
     32 F32          4.2570     0.0000     2.3660 f          1 85Z      -0.144900
     33 H11C        -0.3610    -0.4160    -0.9330 hc         1 85Z       0.057700
     34 H12C        -0.3610    -0.6000     0.8270 hc         1 85Z       0.057700
     35 H13C        -0.3610     1.0160     0.1060 hc         1 85Z       0.057700
     36 H3           1.6580    -0.0000     2.1320 ha         1 85Z       0.153000
     37 H5           5.3660     0.0050     0.0020 ha         1 85Z       0.140000
     38 H6           4.1470     0.0010    -2.1370 ha         1 85Z       0.135000
     39 H201         2.3490    -2.9990    -3.6610 hc         1 85Z       0.059200
     40 H202         2.8370    -2.2280    -2.1450 hc         1 85Z       0.059200
     41 H11          0.7140    -3.1980    -4.8510 ha         1 85Z       0.160000
     42 H12         -0.5490    -3.0480    -6.9390 ha         1 85Z       0.146000
     43 H14         -0.7580     1.2130    -6.5590 ha         1 85Z       0.157000
     44 H19         -0.8430    -0.7030    -8.7500 ho         1 85Z       0.421000
     45 H22          0.4390    -4.4160    -3.7730 ha         1 85Z       0.118500
     46 H26          1.3220    -2.2570    -0.1930 ha         1 85Z       0.118500
     47 H23         -1.2400    -5.7550    -2.5670 ha         1 85Z       0.140000
     48 H25         -0.3530    -3.5810     1.0340 ha         1 85Z       0.140000
     49 H27         -2.4730    -6.3190    -0.4760 ha         1 85Z       0.154000
     50 H28         -1.5670    -4.5590     1.8730 ha         1 85Z       0.104000
@<TRIPOS>BOND
     1     1     2 1
     2     2     3 ar
     3     2     7 ar
     4     3     4 ar
     5     4     5 ar
     6     4    32 1
     7     5     6 ar
     8     6     7 ar
     9     7     8 1
    10     8     9 2
    11     8    17 1
    12     9    10 1
    13     9    20 1
    14    10    11 ar
    15    10    15 ar
    16    11    12 ar
    17    12    13 ar
    18    13    14 ar
    19    13    19 1
    20    14    15 ar
    21    15    16 1
    22    16    17 1
    23    17    18 2
    24    20    21 1
    25    21    22 ar
    26    21    26 ar
    27    22    23 ar
    28    23    24 ar
    29    24    25 ar
    30    24    27 1
    31    25    26 ar
    32    27    28 2
    33    28    29 1
    34    29    30 1
    35    29    31 1
    36     1    33 1
    37     1    34 1
    38     1    35 1
    39     3    36 1
    40     5    37 1
    41     6    38 1
    42    20    39 1
    43    20    40 1
    44    11    41 1
    45    12    42 1
    46    14    43 1
    47    19    44 1
    48    22    45 1
    49    26    46 1
    50    23    47 1
    51    25    48 1
    52    27    49 1
    53    28    50 1
@<TRIPOS>SUBSTRUCTURE
     1 85Z         1 TEMP              0 ****  ****    0 ROOT
