@<TRIPOS>MOLECULE
85Z
   50    53     1     0     0
SMALL
bcc


@<TRIPOS>ATOM
      1 C1          0.7480    0.6370    0.4900 c3        1 85Z     -0.066800
      2 C2          2.1920    0.5520    0.1690 ca        1 85Z     -0.010300
      3 C3          3.1390    0.7190    1.1830 ca        1 85Z     -0.171000
      4 C4          4.5100    0.6470    0.8840 ca        1 85Z      0.126900
      5 C5          4.9390    0.4050   -0.4330 ca        1 85Z     -0.180000
      6 C6          3.9890    0.2370   -1.4340 ca        1 85Z     -0.087000
      7 C7          2.6190    0.3050   -1.1490 ca        1 85Z     -0.046800
      8 C8          1.6490    0.1320   -2.2350 cc        1 85Z     -0.191400
      9 C9          1.3150   -1.0830   -2.7610 cd        1 85Z      0.098600
     10 C10         0.3430   -1.1390   -3.8330 ca        1 85Z     -0.183800
     11 C11        -0.1010   -2.3440   -4.4120 ca        1 85Z     -0.015000
     12 C12        -1.0640   -2.3480   -5.4050 ca        1 85Z     -0.230000
     13 C13        -1.6090   -1.1280   -5.8550 ca        1 85Z      0.174100
     14 C14        -1.1890    0.0930   -5.3220 ca        1 85Z     -0.196000
     15 C15        -0.2190    0.0660   -4.3070 ca        1 85Z      0.179100
     16 O16         0.1390    1.2980   -3.8070 os        1 85Z     -0.327200
     17 C17         1.0480    1.3580   -2.7530 c         1 85Z      0.732800
     18 O18         1.2200    2.5300   -2.4100 o         1 85Z     -0.583500
     19 O19        -2.5610   -1.0730   -6.8430 oh        1 85Z     -0.497100
     20 C20         1.9760   -2.3390   -2.2960 c3        1 85Z     -0.006900
     21 C21         1.0630   -3.3940   -1.7760 ca        1 85Z     -0.127300
     22 C22         1.4510   -4.7350   -1.8930 ca        1 85Z     -0.136500
     23 C23         0.6210   -5.7500   -1.4300 ca        1 85Z     -0.128500
     24 C24        -0.6250   -5.4530   -0.8540 ca        1 85Z      0.004200
     25 C25        -1.0000   -4.1060   -0.7170 ca        1 85Z     -0.128500
     26 C26        -0.1580   -3.0920   -1.1640 ca        1 85Z     -0.136500
     27 C27        -1.4810   -6.5390   -0.4090 ce        1 85Z     -0.196200
     28 C28        -2.8170   -6.5740   -0.4430 cf        1 85Z     -0.138200
     29 C29        -3.7690   -5.5260   -0.9740 c         1 85Z      0.895800
     30 O30        -4.2830   -5.7290   -2.1090 o         1 85Z     -0.830800
     31 O31        -4.0350   -4.5280   -0.2410 o         1 85Z     -0.830800
     32 F32         5.4250    0.8120    1.8720 f         1 85Z     -0.149900
     33 H11C        0.2580    1.3980   -0.1700 hc        1 85Z      0.057367
     34 H12C        0.5820    0.9290    1.5560 hc        1 85Z      0.057367
     35 H13C        0.2540   -0.3520    0.3120 hc        1 85Z      0.057367
     36 H3          2.8190    0.9090    2.2170 ha        1 85Z      0.147000
     37 H5          6.0130    0.3530   -0.6580 ha        1 85Z      0.141000
     38 H6          4.3190    0.0510   -2.4670 ha        1 85Z      0.136000
     39 H201        2.7250   -2.0960   -1.4900 hc        1 85Z      0.062200
     40 H202        2.5590   -2.7500   -3.1700 hc        1 85Z      0.062200
     41 H11         0.3070   -3.3030   -4.0480 ha        1 85Z      0.168000
     42 H12        -1.4270   -3.2990   -5.8210 ha        1 85Z      0.151000
     43 H14        -1.6130    1.0440   -5.6680 ha        1 85Z      0.168000
     44 H19        -2.8890   -1.9740   -6.9890 ho        1 85Z      0.429000
     45 H22         2.4150   -4.9860   -2.3580 ha        1 85Z      0.117000
     46 H26        -0.4700   -2.0420   -1.0550 ha        1 85Z      0.117000
     47 H23         0.9340   -6.7990   -1.5310 ha        1 85Z      0.163000
     48 H25        -1.9900   -3.8660   -0.2760 ha        1 85Z      0.163000
     49 H27        -0.9220   -7.4150   -0.0320 ha        1 85Z      0.089000
     50 H28        -3.3400   -7.4740   -0.0770 ha        1 85Z      0.100000
@<TRIPOS>BOND
     1    1    2 1   
     2    1   33 1   
     3    1   34 1   
     4    1   35 1   
     5    2    3 ar  
     6    2    7 ar  
     7    3    4 ar  
     8    3   36 1   
     9    4    5 ar  
    10    4   32 1   
    11    5    6 ar  
    12    5   37 1   
    13    6    7 ar  
    14    6   38 1   
    15    7    8 1   
    16    8    9 2   
    17    8   17 1   
    18    9   10 1   
    19    9   20 1   
    20   10   11 ar  
    21   10   15 ar  
    22   11   12 ar  
    23   11   41 1   
    24   12   13 ar  
    25   12   42 1   
    26   13   14 ar  
    27   13   19 1   
    28   14   15 ar  
    29   14   43 1   
    30   15   16 1   
    31   16   17 1   
    32   17   18 2   
    33   19   44 1   
    34   20   21 1   
    35   20   39 1   
    36   20   40 1   
    37   21   22 ar  
    38   21   26 ar  
    39   22   23 ar  
    40   22   45 1   
    41   23   24 ar  
    42   23   47 1   
    43   24   25 ar  
    44   24   27 1   
    45   25   26 ar  
    46   25   48 1   
    47   26   46 1   
    48   27   28 2   
    49   27   49 1   
    50   28   29 1   
    51   28   50 1   
    52   29   30 1   
    53   29   31 1   
@<TRIPOS>SUBSTRUCTURE
     1 85Z         1 TEMP              0 ****  ****    0 ROOT
