@<TRIPOS>MOLECULE
molecule
   67    69     1     0     0
SMALL
bcc


@<TRIPOS>ATOM
      1 O6           0.0000     0.0000     0.0000 o          1 861      -0.629800
      2 S            1.4200     0.0000     0.0000 s6         1 861       1.338900
      3 O5           2.1540     0.0000     1.2170 o          1 861      -0.629800
      4 C18          2.0560    -1.2730    -1.1260 c3         1 861      -0.166300
      5 C19          1.7420    -2.6380    -0.5700 ca         1 861      -0.087300
      6 C24          2.6380    -3.2610     0.2780 ca         1 861      -0.108500
      7 C23          2.3500    -4.5130     0.7890 ca         1 861      -0.129000
      8 C22          1.1660    -5.1410     0.4510 ca         1 861      -0.121000
      9 C21          0.2700    -4.5180    -0.3960 ca         1 861      -0.129000
     10 C20          0.5560    -3.2640    -0.9030 ca         1 861      -0.108500
     11 N            1.8300     1.4330    -0.7240 n3         1 861      -0.811500
     12 C17          3.0880     2.1090    -0.3850 c3         1 861       0.239800
     13 C16          3.8650     2.3830    -1.6780 c3         1 861      -0.102400
     14 C15          2.9740     3.1610    -2.6480 c3         1 861      -0.075400
     15 C14          1.7390     2.3240    -2.9930 c3         1 861      -0.090400
     16 C13          0.9420     2.0480    -1.7200 c3         1 861       0.207500
     17 C12         -0.1940     1.1090    -2.0320 c          1 861       0.657100
     18 O4           0.0370    -0.0300    -2.3650 o          1 861      -0.587000
     19 O3          -1.4630     1.5370    -1.9420 os         1 861      -0.403900
     20 C11         -2.5070     0.5790    -2.2580 c3         1 861       0.151400
     21 C10         -3.8750     1.2440    -2.1000 c3         1 861      -0.081400
     22 C9          -4.9760     0.2340    -2.4320 c3         1 861      -0.034100
     23 C3          -6.3240     0.8900    -2.2760 ca         1 861      -0.013300
     24 C2          -6.9060     1.5310    -3.3540 ca         1 861      -0.248000
     25 C4          -6.9760     0.8430    -1.0590 ca         1 861      -0.248000
     26 C5          -8.2160     1.4460    -0.9120 ca         1 861       0.160100
     27 O2          -8.8570     1.3990     0.2870 os         1 861      -0.311900
     28 C8          -8.1950     0.7140     1.3510 c3         1 861       0.126700
     29 C6          -8.8030     2.0960    -1.9910 ca         1 861       0.046100
     30 O1         -10.0210     2.6890    -1.8490 os         1 861      -0.323900
     31 C7         -10.0330     4.0560    -1.4370 c3         1 861       0.134700
     32 C1          -8.1470     2.1350    -3.2140 ca         1 861       0.160100
     33 O           -8.7190     2.7670    -4.2740 os         1 861      -0.311900
     34 C           -7.9870     2.7680    -5.5010 c3         1 861       0.126700
     35 H1           3.1290    -1.1620    -1.2270 h1         1 861       0.117200
     36 H2           1.5890    -1.1620    -2.0970 h1         1 861       0.117200
     37 H3           3.5660    -2.7690     0.5430 ha         1 861       0.141500
     38 H4           3.0520    -5.0010     1.4540 ha         1 861       0.132000
     39 H5           0.9420    -6.1230     0.8500 ha         1 861       0.130000
     40 H6          -0.6590    -5.0100    -0.6590 ha         1 861       0.132000
     41 H7          -0.1460    -2.7750    -1.5670 ha         1 861       0.141500
     42 H8           2.8730     3.0470     0.1140 h1         1 861       0.064200
     43 H9           3.6780     1.4730     0.2640 h1         1 861       0.064200
     44 H10          4.7470     2.9680    -1.4510 hc         1 861       0.050200
     45 H11          4.1540     1.4420    -2.1300 hc         1 861       0.050200
     46 H12          2.6610     4.0890    -2.1840 hc         1 861       0.048200
     47 H13          3.5290     3.3730    -3.5540 hc         1 861       0.048200
     48 H14          2.0530     1.3850    -3.4330 hc         1 861       0.058700
     49 H15          1.1200     2.8690    -3.6950 hc         1 861       0.058700
     50 H16          0.5520     2.9800    -1.3300 h1         1 861       0.080700
     51 H17         -2.4360    -0.2670    -1.5850 h1         1 861       0.055200
     52 H18         -2.3870     0.2380    -3.2800 h1         1 861       0.055200
     53 H19         -3.9950     1.5850    -1.0790 hc         1 861       0.058700
     54 H20         -3.9460     2.0890    -2.7740 hc         1 861       0.058700
     55 H21         -4.8560    -0.1070    -3.4530 hc         1 861       0.053200
     56 H22         -4.9060    -0.6110    -1.7580 hc         1 861       0.053200
     57 H23         -6.3940     1.5610    -4.3080 ha         1 861       0.140500
     58 H24         -6.5190     0.3340    -0.2200 ha         1 861       0.140500
     59 H25         -8.0390    -0.3210     1.0730 h1         1 861       0.042533
     60 H26         -8.8050     0.7600     2.2460 h1         1 861       0.042533
     61 H27         -7.2380     1.1850     1.5430 h1         1 861       0.042533
     62 H28        -10.9280     4.5380    -1.8110 h1         1 861       0.033367
     63 H29        -10.0220     4.1070    -0.3540 h1         1 861       0.033367
     64 H30         -9.1590     4.5600    -1.8310 h1         1 861       0.033367
     65 H31         -7.8280     1.7470    -5.8280 h1         1 861       0.042533
     66 H32         -8.5490     3.3060    -6.2560 h1         1 861       0.042533
     67 H33         -7.0300     3.2520    -5.3500 h1         1 861       0.042533
@<TRIPOS>BOND
     1    13    14 1   
     2    13    12 1   
     3     1     2 2   
     4    15    14 1   
     5    15    16 1   
     6    12    11 1   
     7    11     2 1   
     8    11    16 1   
     9     2     3 2   
    10     2     4 1   
    11    16    17 1   
    12     6     7 ar  
    13     6     5 ar  
    14    17    18 2   
    15    17    19 1   
    16     7     8 ar  
    17     4     5 1   
    18     5    10 ar  
    19     8     9 ar  
    20    10     9 ar  
    21    19    20 1   
    22    20    21 1   
    23    21    22 1   
    24    22    23 1   
    25    23    24 ar  
    26    23    25 ar  
    27    24    32 ar  
    28    25    26 ar  
    29    32    33 1   
    30    32    29 ar  
    31    34    33 1   
    32    31    30 1   
    33    26    29 ar  
    34    26    27 1   
    35    29    30 1   
    36    27    28 1   
    37     4    35 1   
    38     4    36 1   
    39     6    37 1   
    40     7    38 1   
    41     8    39 1   
    42     9    40 1   
    43    10    41 1   
    44    12    42 1   
    45    12    43 1   
    46    13    44 1   
    47    13    45 1   
    48    14    46 1   
    49    14    47 1   
    50    15    48 1   
    51    15    49 1   
    52    16    50 1   
    53    20    51 1   
    54    20    52 1   
    55    21    53 1   
    56    21    54 1   
    57    22    55 1   
    58    22    56 1   
    59    24    57 1   
    60    25    58 1   
    61    28    59 1   
    62    28    60 1   
    63    28    61 1   
    64    31    62 1   
    65    31    63 1   
    66    31    64 1   
    67    34    65 1   
    68    34    66 1   
    69    34    67 1   
@<TRIPOS>SUBSTRUCTURE
     1 861         1 TEMP              0 ****  ****    0 ROOT
