@<TRIPOS>MOLECULE
861
   67    69     1     0     0
SMALL
bcc


@<TRIPOS>ATOM
      1 O6           0.0000     0.0000     0.0000 o          1 861      -0.585800
      2 S            1.4200     0.0000     0.0000 s6         1 861       0.971900
      3 O5           2.1540     0.0000     1.2170 o          1 861      -0.585800
      4 C18          2.0560    -1.2730    -1.1260 c3         1 861       0.040700
      5 C19          1.7420    -2.6380    -0.5700 ca         1 861      -0.080300
      6 C24          2.6380    -3.2610     0.2780 ca         1 861      -0.086000
      7 C23          2.3500    -4.5130     0.7890 ca         1 861      -0.100000
      8 C22          1.1660    -5.1410     0.4510 ca         1 861      -0.098000
      9 C21          0.2700    -4.5180    -0.3960 ca         1 861      -0.100000
     10 C20          0.5560    -3.2640    -0.9030 ca         1 861      -0.086000
     11 N            1.8300     1.4330    -0.7240 n3         1 861      -0.536500
     12 C17          3.0880     2.1090    -0.3850 c3         1 861       0.241800
     13 C16          3.8650     2.3830    -1.6780 c3         1 861      -0.049400
     14 C15          2.9740     3.1610    -2.6480 c3         1 861      -0.018400
     15 C14          1.7390     2.3240    -2.9930 c3         1 861      -0.040400
     16 C13          0.9420     2.0480    -1.7200 c3         1 861       0.170500
     17 C12         -0.1940     1.1090    -2.0320 c          1 861       0.734100
     18 O4           0.0370    -0.0300    -2.3650 o          1 861      -0.625000
     19 O3          -1.4630     1.5370    -1.9420 os         1 861      -0.391900
     20 C11         -2.5070     0.5790    -2.2580 c3         1 861       0.227400
     21 C10         -3.8750     1.2440    -2.1000 c3         1 861      -0.037400
     22 C9          -4.9760     0.2340    -2.4320 c3         1 861       0.033900
     23 C3          -6.3240     0.8900    -2.2760 ca         1 861      -0.012300
     24 C2          -6.9060     1.5310    -3.3540 ca         1 861      -0.240500
     25 C4          -6.9760     0.8430    -1.0590 ca         1 861      -0.240500
     26 C5          -8.2160     1.4460    -0.9120 ca         1 861       0.166600
     27 O2          -8.8570     1.3990     0.2870 os         1 861      -0.292900
     28 C8          -8.1950     0.7140     1.3510 c3         1 861       0.241200
     29 C6          -8.8030     2.0960    -1.9910 ca         1 861       0.039100
     30 O1         -10.0210     2.6890    -1.8490 os         1 861      -0.308900
     31 C7         -10.0330     4.0560    -1.4370 c3         1 861       0.250700
     32 C1          -8.1470     2.1350    -3.2140 ca         1 861       0.166600
     33 O           -8.7190     2.7670    -4.2740 os         1 861      -0.292900
     34 C           -7.9870     2.7680    -5.5010 c3         1 861       0.241200
     35 H1           3.1290    -1.1620    -1.2270 h1         1 861       0.089700
     36 H2           1.5890    -1.1620    -2.0970 h1         1 861       0.089700
     37 H3           3.5660    -2.7690     0.5430 ha         1 861       0.116000
     38 H4           3.0520    -5.0010     1.4540 ha         1 861       0.103000
     39 H5           0.9420    -6.1230     0.8500 ha         1 861       0.101000
     40 H6          -0.6590    -5.0100    -0.6590 ha         1 861       0.103000
     41 H7          -0.1460    -2.7750    -1.5670 ha         1 861       0.116000
     42 H8           2.8730     3.0470     0.1140 h1         1 861       0.028700
     43 H9           3.6780     1.4730     0.2640 h1         1 861       0.028700
     44 H10          4.7470     2.9680    -1.4510 hc         1 861       0.019200
     45 H11          4.1540     1.4420    -2.1300 hc         1 861       0.019200
     46 H12          2.6610     4.0890    -2.1840 hc         1 861       0.017200
     47 H13          3.5290     3.3730    -3.5540 hc         1 861       0.017200
     48 H14          2.0530     1.3850    -3.4330 hc         1 861       0.027200
     49 H15          1.1200     2.8690    -3.6950 hc         1 861       0.027200
     50 H16          0.5520     2.9800    -1.3300 h1         1 861       0.041700
     51 H17         -2.4360    -0.2670    -1.5850 h1         1 861       0.015700
     52 H18         -2.3870     0.2380    -3.2800 h1         1 861       0.015700
     53 H19         -3.9950     1.5850    -1.0790 hc         1 861       0.025700
     54 H20         -3.9460     2.0890    -2.7740 hc         1 861       0.025700
     55 H21         -4.8560    -0.1070    -3.4530 hc         1 861       0.020200
     56 H22         -4.9060    -0.6110    -1.7580 hc         1 861       0.020200
     57 H23         -6.3940     1.5610    -4.3080 ha         1 861       0.128500
     58 H24         -6.5190     0.3340    -0.2200 ha         1 861       0.128500
     59 H25         -8.0390    -0.3210     1.0730 h1         1 861      -0.002133
     60 H26         -8.8050     0.7600     2.2460 h1         1 861      -0.002133
     61 H27         -7.2380     1.1850     1.5430 h1         1 861      -0.002133
     62 H28        -10.9280     4.5380    -1.8110 h1         1 861      -0.010300
     63 H29        -10.0220     4.1070    -0.3540 h1         1 861      -0.010300
     64 H30         -9.1590     4.5600    -1.8310 h1         1 861      -0.010300
     65 H31         -7.8280     1.7470    -5.8280 h1         1 861      -0.002133
     66 H32         -8.5490     3.3060    -6.2560 h1         1 861      -0.002133
     67 H33         -7.0300     3.2520    -5.3500 h1         1 861      -0.002133
@<TRIPOS>BOND
     1     1     2 2   
     2     2     3 2   
     3     2     4 1   
     4     2    11 1   
     5     4     5 1   
     6     4    35 1   
     7     4    36 1   
     8     5     6 ar  
     9     5    10 ar  
    10     6     7 ar  
    11     6    37 1   
    12     7     8 ar  
    13     7    38 1   
    14     8     9 ar  
    15     8    39 1   
    16     9    10 ar  
    17     9    40 1   
    18    10    41 1   
    19    11    12 1   
    20    11    16 1   
    21    12    13 1   
    22    12    42 1   
    23    12    43 1   
    24    13    14 1   
    25    13    44 1   
    26    13    45 1   
    27    14    15 1   
    28    14    46 1   
    29    14    47 1   
    30    15    16 1   
    31    15    48 1   
    32    15    49 1   
    33    16    17 1   
    34    16    50 1   
    35    17    18 2   
    36    17    19 1   
    37    19    20 1   
    38    20    21 1   
    39    20    51 1   
    40    20    52 1   
    41    21    22 1   
    42    21    53 1   
    43    21    54 1   
    44    22    23 1   
    45    22    55 1   
    46    22    56 1   
    47    23    24 ar  
    48    23    25 ar  
    49    24    32 ar  
    50    24    57 1   
    51    25    26 ar  
    52    25    58 1   
    53    26    27 1   
    54    26    29 ar  
    55    27    28 1   
    56    28    59 1   
    57    28    60 1   
    58    28    61 1   
    59    29    30 1   
    60    29    32 ar  
    61    30    31 1   
    62    31    62 1   
    63    31    63 1   
    64    31    64 1   
    65    32    33 1   
    66    33    34 1   
    67    34    65 1   
    68    34    66 1   
    69    34    67 1   
@<TRIPOS>SUBSTRUCTURE
     1 861         1 TEMP              0 ****  ****    0 ROOT
