@<TRIPOS>MOLECULE
molecule
   59    60     1     0     0
SMALL
bcc


@<TRIPOS>ATOM
      1 C1           1.5070     0.0000     0.0000 c3         1 864      -0.120400
      2 C2           2.0100     0.0000     1.4210 c          1 864       0.857600
      3 C3           0.0000     0.0000     0.0000 ca         1 864       0.036700
      4 C4          -0.6910    -1.0330     0.6040 ca         1 864      -0.024000
      5 C5          -2.0740    -1.0340     0.6040 ca         1 864      -0.141000
      6 C6          -2.7640     0.0010     0.0000 ca         1 864      -0.158000
      7 C7          -2.0730     1.0340    -0.6030 ca         1 864      -0.223300
      8 C8          -0.6910     1.0360    -0.5990 ca         1 864      -0.121000
      9 C9          -2.8270     2.1620    -1.2610 c3         1 864       0.162100
     10 N10         -3.0720     3.2250    -0.2790 nz         1 864      -0.810600
     11 O13          3.3290     0.0000     1.6660 o          1 864      -0.795800
     12 O14          1.2240     0.0000     2.3390 o          1 864      -0.795800
     13 C15          2.0170    -1.2500    -0.7210 c3         1 864      -0.229600
     14 P24          3.7850    -1.0450    -1.1160 p5         1 864       0.946400
     15 C25          4.3330    -2.4200    -2.1800 c3         1 864      -0.039500
     16 C26          4.1240    -3.7460    -1.4460 c3         1 864      -0.080700
     17 C27          2.6330    -4.0890    -1.4290 c3         1 864      -0.087100
     18 C28          4.8920    -4.8550    -2.1680 c3         1 864      -0.087100
     19 N29          5.7540    -2.2560    -2.4960 ns         1 864      -0.505900
     20 C30          6.1270    -1.8350    -3.7210 c          1 864       0.746100
     21 O31          5.2850    -1.5920    -4.5630 o          1 864      -0.637000
     22 O32          7.4340    -1.6850    -4.0110 os         1 864      -0.444900
     23 C33          7.7630    -1.2280    -5.3500 c3         1 864       0.215700
     24 O34          4.6430    -1.0450     0.2460 o          1 864      -0.754000
     25 O35          3.9860     0.2380    -1.8250 o          1 864      -0.754000
     26 C36          9.2590    -1.1190    -5.4890 ca         1 864      -0.081300
     27 C37          9.8990     0.0650    -5.1730 ca         1 864      -0.103000
     28 C38         11.2710     0.1650    -5.3010 ca         1 864      -0.140000
     29 C39         12.0050    -0.9190    -5.7460 ca         1 864      -0.132000
     30 C40         11.3650    -2.1040    -6.0620 ca         1 864      -0.140000
     31 C41          9.9930    -2.2050    -5.9300 ca         1 864      -0.103000
     32 H1           1.8690     0.8840    -0.5110 hc         1 864       0.078700
     33 H4          -0.1490    -1.8440     1.0770 ha         1 864       0.177000
     34 H5          -2.6150    -1.8440     1.0770 ha         1 864       0.125000
     35 H6          -3.8480     0.0000    -0.0020 ha         1 864       0.092000
     36 H8          -0.1490     1.8460    -1.0720 ha         1 864       0.131000
     37 H91         -3.7730     1.7920    -1.6380 hx         1 864       0.091700
     38 H92         -2.2410     2.5570    -2.0820 hx         1 864       0.091700
     39 H101        -3.4420     4.0310    -0.7450 hn         1 864       0.442467
     40 H102        -2.2130     3.4670     0.1730 hn         1 864       0.442467
     41 H151         1.4560    -1.3920    -1.6370 hc         1 864       0.027700
     42 H152         1.8880    -2.1140    -0.0800 hc         1 864       0.027700
     43 H25          3.7570    -2.4200    -3.0970 h1         1 864       0.073700
     44 H26          4.4860    -3.6580    -0.4290 hc         1 864       0.084700
     45 H271         2.0970    -3.4040    -2.0740 hc         1 864       0.025200
     46 H272         2.4920    -5.1030    -1.7830 hc         1 864       0.025200
     47 H273         2.2540    -4.0040    -0.4170 hc         1 864       0.025200
     48 H281         4.5970    -5.8180    -1.7700 hc         1 864       0.025200
     49 H282         4.6690    -4.8180    -3.2270 hc         1 864       0.025200
     50 H283         5.9560    -4.7130    -2.0180 hc         1 864       0.025200
     51 HN29         6.4450    -2.4130    -1.7890 hn         1 864       0.331500
     52 H331         7.3830    -1.9350    -6.0770 h1         1 864       0.050200
     53 H332         7.3130    -0.2570    -5.5210 h1         1 864       0.050200
     54 H37          9.3240     0.9150    -4.8250 ha         1 864       0.138000
     55 H38         11.7720     1.0930    -5.0530 ha         1 864       0.121500
     56 H39         13.0810    -0.8410    -5.8480 ha         1 864       0.117000
     57 H40         11.9400    -2.9540    -6.4090 ha         1 864       0.121500
     58 H41          9.4920    -3.1330    -6.1780 ha         1 864       0.138000
     59 H103        -3.7340     2.9060     0.4000 hn         1 864       0.442467
@<TRIPOS>BOND
     1     1     3 1   
     2     1    13 1   
     3     1     2 1   
     4     1    32 1   
     5     2    12 1   
     6     2    11 1   
     7     3     8 ar  
     8     3     4 ar  
     9     4     5 ar  
    10     4    33 1   
    11     5     6 ar  
    12     5    34 1   
    13     6     7 ar  
    14     6    35 1   
    15     7     9 1   
    16     7     8 ar  
    17     8    36 1   
    18     9    10 1   
    19     9    37 1   
    20     9    38 1   
    21    10    39 1   
    22    10    40 1   
    23    13    14 1   
    24    13    41 1   
    25    13    42 1   
    26    14    24 1   
    27    14    15 1   
    28    14    25 1   
    29    15    16 1   
    30    15    19 1   
    31    15    43 1   
    32    16    17 1   
    33    16    18 1   
    34    16    44 1   
    35    17    45 1   
    36    17    46 1   
    37    17    47 1   
    38    18    48 1   
    39    18    49 1   
    40    18    50 1   
    41    19    20 1   
    42    19    51 1   
    43    20    21 2   
    44    20    22 1   
    45    22    23 1   
    46    23    26 1   
    47    23    52 1   
    48    23    53 1   
    49    26    31 ar  
    50    26    27 ar  
    51    27    28 ar  
    52    27    54 1   
    53    28    29 ar  
    54    28    55 1   
    55    29    30 ar  
    56    29    56 1   
    57    30    31 ar  
    58    30    57 1   
    59    31    58 1   
    60    59    10 1   
@<TRIPOS>SUBSTRUCTURE
     1 864         1 TEMP              0 ****  ****    0 ROOT
