@<TRIPOS>MOLECULE
molecule
   82    88     1     0     0
SMALL
bcc


@<TRIPOS>ATOM
      1 C01          0.0000     0.0000     0.0000 c3         1 865      -0.050800
      2 C02          1.5060     0.0000     0.0000 ca         1 865      -0.028300
      3 C03          2.2160     0.0000     1.1900 ca         1 865      -0.276300
      4 C04          3.5980    -0.0010     1.1560 ca         1 865       0.427200
      5 N05          4.2520    -0.0010     0.0100 nb         1 865      -0.718000
      6 C06          3.6220    -0.0010    -1.1510 ca         1 865       0.536800
      7 C07          2.2220    -0.0070    -1.1990 cp         1 865      -0.137300
      8 C08          1.5130    -0.0140    -2.5000 cp         1 865      -0.069000
      9 C09          1.2390     1.1810    -3.1550 ca         1 865      -0.131000
     10 C10          0.5750     1.1810    -4.3720 ca         1 865      -0.178000
     11 C11          0.1780     0.0110    -4.9510 ca         1 865      -0.078000
     12 C12          0.4390    -1.2120    -4.3160 ca         1 865      -0.080800
     13 C13          0.1610    -2.5590    -4.6500 cc         1 865      -0.161400
     14 C14         -0.5490    -3.0390    -5.8910 c3         1 865       0.007800
     15 C15          0.4760    -3.2900    -7.0000 c3         1 865      -0.072400
     16 C16         -0.2450    -3.7770    -8.2580 c3         1 865       0.132400
     17 O17          0.7120    -4.0120    -9.2930 os         1 865      -0.321900
     18 C18          0.2350    -4.4520   -10.4860 ca         1 865       0.180100
     19 C19         -1.1060    -4.6520   -10.6590 ca         1 865      -0.249000
     20 C20         -1.6120    -5.1010   -11.8760 ca         1 865      -0.077000
     21 C21         -0.7860    -5.3550   -12.9280 ca         1 865      -0.180000
     22 C22          0.5990    -5.1630   -12.7920 ca         1 865       0.000000
     23 C23          1.4780    -5.4100   -13.8590 ca         1 865      -0.139000
     24 C24          2.8140    -5.2020   -13.6940 ca         1 865      -0.116000
     25 C25          3.3230    -4.7470   -12.4800 ca         1 865      -0.157000
     26 C26          2.5010    -4.4970   -11.4230 ca         1 865      -0.076000
     27 C27          1.1180    -4.6990   -11.5570 ca         1 865      -0.061000
     28 C28          0.6490    -3.3420    -3.6530 cd         1 865      -0.027300
     29 C29          0.5730    -4.8090    -3.6040 c          1 865       0.902800
     30 O30          1.0980    -5.4780    -2.5580 o          1 865      -0.822800
     31 O31          0.0380    -5.4190    -4.5090 o          1 865      -0.822800
     32 N32          1.2310    -2.5380    -2.6910 na         1 865      -0.021400
     33 C33          1.8700    -3.0080    -1.4590 c3         1 865      -0.027700
     34 C34          3.3330    -3.2560    -1.7160 c          1 865       0.656100
     35 O35          3.7980    -3.0600    -2.8200 o          1 865      -0.579100
     36 N36          4.1280    -3.6960    -0.7200 n          1 865      -0.496800
     37 C37          5.5590    -3.9450    -0.9490 c3         1 865       0.112000
     38 C38          6.3600    -3.2110     0.1320 c3         1 865       0.129300
     39 N39          5.8660    -3.6070     1.4570 n7         1 865      -0.816200
     40 C40          4.4650    -3.2060     1.6440 c3         1 865       0.129300
     41 C41          3.5870    -3.9330     0.6270 c3         1 865       0.112000
     42 C42          1.1160    -1.2270    -3.0820 ca         1 865      -0.028200
     43 N43          4.3570    -0.0000    -2.3400 na         1 865      -0.213700
     44 C44          4.1100     0.7660    -3.4500 cc         1 865      -0.256600
     45 C45          5.0540     0.4520    -4.3570 cd         1 865       0.311200
     46 N46          5.8570    -0.4800    -3.8220 nd         1 865      -0.701000
     47 C47          5.4530    -0.7550    -2.6120 cc         1 865       0.444400
     48 H1          -0.3610     0.2670     0.9860 hc         1 865       0.054700
     49 H2          -0.3610     0.7200    -0.7240 hc         1 865       0.054700
     50 H3          -0.3610    -0.9870    -0.2620 hc         1 865       0.054700
     51 H4           1.6930    -0.0000     2.1380 ha         1 865       0.136000
     52 H5           4.1540    -0.0010     2.0860 h4         1 865       0.017100
     53 H6           1.5470     2.1200    -2.7100 ha         1 865       0.115000
     54 H7           0.3690     2.1210    -4.8700 ha         1 865       0.113000
     55 H8          -0.3400     0.0260    -5.9020 ha         1 865       0.122000
     56 H9          -1.2560    -2.2860    -6.2170 hc         1 865       0.051200
     57 H10         -1.0770    -3.9590    -5.6720 hc         1 865       0.051200
     58 H11          1.0040    -2.3700    -7.2190 hc         1 865       0.065200
     59 H12          1.1830    -4.0440    -6.6740 hc         1 865       0.065200
     60 H13         -0.9520    -3.0240    -8.5840 h1         1 865       0.035200
     61 H14         -0.7730    -4.6970    -8.0390 h1         1 865       0.035200
     62 H15         -1.7850    -4.4570    -9.8380 ha         1 865       0.141000
     63 H16         -2.6790    -5.2510   -11.9870 ha         1 865       0.120000
     64 H17         -1.1970    -5.7040   -13.8680 ha         1 865       0.122000
     65 H18          1.0960    -5.7640   -14.8090 ha         1 865       0.124000
     66 H19          3.4900    -5.3930   -14.5180 ha         1 865       0.118000
     67 H20          4.3900    -4.5890   -12.3740 ha         1 865       0.125000
     68 H21          2.9110    -4.1430   -10.4850 ha         1 865       0.155000
     69 H23          1.7610    -2.2570    -0.6860 h1         1 865       0.094700
     70 H24          1.3990    -3.9290    -1.1360 h1         1 865       0.094700
     71 H25          5.8410    -3.5710    -1.9260 h1         1 865       0.063200
     72 H26          5.7570    -5.0080    -0.8880 h1         1 865       0.063200
     73 H27          7.4070    -3.4730     0.0450 h1         1 865       0.035950
     74 H28          6.2380    -2.1410     0.0070 h1         1 865       0.035950
     75 H29          6.4320    -3.1830     2.1650 hn         1 865       0.343800
     76 H31          4.3740    -2.1370     1.4990 h1         1 865       0.035950
     77 H32          4.1470    -3.4690     2.6460 h1         1 865       0.035950
     78 H33          2.5750    -3.5510     0.6830 h1         1 865       0.063200
     79 H34          3.5930    -4.9960     0.8380 h1         1 865       0.063200
     80 H35          3.3100     1.4860    -3.5730 h4         1 865       0.185000
     81 H36          5.1470     0.8770    -5.3490 h4         1 865       0.033100
     82 H37          5.9110    -1.4710    -1.9400 h5         1 865       0.069100
@<TRIPOS>BOND
     1    24    25 ar
     2    24    23 ar
     3    25    26 ar
     4    23    22 ar
     5    26    27 ar
     6    22    27 ar
     7    22    21 ar
     8    27    18 ar
     9    21    20 ar
    10    18    17 1
    11    18    19 ar
    12    20    19 ar
    13    17    16 1
    14    16    15 1
    15    14    15 1
    16    14    13 1
    17    11    10 ar
    18    11    12 ar
    19    10     9 ar
    20    13    12 1
    21    13    28 2
    22    12    42 ar
    23     9     8 ar
    24    28    29 1
    25    28    32 1
    26    42     8 ar
    27    42    32 1
    28    31    29 1
    29     8     7 1
    30    29    30 1
    31     1     2 1
    32    32    33 1
    33     7     2 ar
    34     7     6 ar
    35     2     3 ar
    36    47    46 2
    37    47    43 1
    38    46    45 1
    39    33    34 1
    40    43     6 1
    41    43    44 1
    42     6     5 ar
    43    45    44 2
    44    35    34 2
    45     3     4 ar
    46    34    36 1
    47     5     4 ar
    48    36    37 1
    49    36    41 1
    50    37    38 1
    51    41    40 1
    52    38    39 1
    53    40    39 1
    54     1    48 1
    55     1    49 1
    56     1    50 1
    57     3    51 1
    58     4    52 1
    59     9    53 1
    60    10    54 1
    61    11    55 1
    62    14    56 1
    63    14    57 1
    64    15    58 1
    65    15    59 1
    66    16    60 1
    67    16    61 1
    68    19    62 1
    69    20    63 1
    70    21    64 1
    71    23    65 1
    72    24    66 1
    73    25    67 1
    74    26    68 1
    75    33    69 1
    76    33    70 1
    77    37    71 1
    78    37    72 1
    79    38    73 1
    80    38    74 1
    81    39    75 1
    82    40    76 1
    83    40    77 1
    84    41    78 1
    85    41    79 1
    86    44    80 1
    87    45    81 1
    88    47    82 1
@<TRIPOS>SUBSTRUCTURE
     1 865         1 TEMP              0 ****  ****    0 ROOT
