@<TRIPOS>MOLECULE
866
   58    60     1     0     0
SMALL
bcc


@<TRIPOS>ATOM
      1 C1           0.0000     0.0000     0.0000 c3         1 866      -0.034100
      2 C2           1.5310     0.0000     0.0000 c3         1 866       0.010000
      3 N1           2.0190     0.0000     1.3820 n          1 866      -0.138800
      4 C3           2.2630    -1.2690     2.0710 c3         1 866       0.034000
      5 C4           3.7090    -1.7100     1.8310 c3         1 866       0.072800
      6 O1           4.6000    -0.7720     2.4380 oh         1 866      -0.553800
      7 C5           3.9280    -3.0940     2.4460 c3         1 866       0.024000
      8 N2           5.3120    -3.5160     2.2160 ns         1 866      -0.235900
      9 C6           5.7360    -4.7120     2.6730 c          1 866       0.668700
     10 O2           4.9710    -5.4390     3.2770 o          1 866      -0.686100
     11 C7           7.1230    -5.1340     2.4420 cc         1 866      -0.469900
     12 C8           8.1250    -4.4020     1.7620 cc         1 866       0.453200
     13 N3           9.2190    -5.1100     1.7650 nd         1 866      -0.669800
     14 N4           8.9880    -6.3150     2.4350 na         1 866       0.586300
     15 C9           7.7040    -6.3310     2.8560 cd         1 866      -0.044700
     16 N5           7.0850    -7.3430     3.5620 nv         1 866      -0.420200
     17 C10          9.9300    -7.3330     2.6390 ca         1 866      -0.154200
     18 C11         10.8860    -7.6000     1.6700 ca         1 866      -0.076500
     19 C12         11.8140    -8.6030     1.8730 ca         1 866      -0.118000
     20 C13         11.7900    -9.3420     3.0440 ca         1 866       0.109900
     21 F1          12.6980   -10.3230     3.2410 f          1 866      -0.124900
     22 C14         10.8370    -9.0770     4.0130 ca         1 866      -0.118000
     23 C15          9.9110    -8.0710     3.8160 ca         1 866      -0.076500
     24 C16          3.9790    -1.7730     0.3270 c3         1 866       0.584900
     25 F2           3.7780    -0.5070    -0.2360 f          1 866      -0.201633
     26 F3           5.3010    -2.1760     0.1060 f          1 866      -0.201633
     27 F4           3.1060    -2.6900    -0.2660 f          1 866      -0.201633
     28 C17          2.2440     1.1670     2.0170 c          1 866       0.621700
     29 O3           2.6480     1.1660     3.1640 o          1 866      -0.620100
     30 C18          1.9970     2.4460     1.3220 ca         1 866      -0.130600
     31 C19          3.0180     3.0540     0.5880 ca         1 866      -0.005600
     32 Cl1          4.5830     2.3090     0.4910 cl         1 866       0.006100
     33 C20          2.7810     4.2520    -0.0600 ca         1 866      -0.104000
     34 C21          1.5340     4.8470     0.0160 ca         1 866      -0.068000
     35 C22          0.5180     4.2500     0.7400 ca         1 866      -0.104000
     36 C23          0.7380     3.0510     1.3880 ca         1 866      -0.005600
     37 Cl2         -0.5410     2.3010     2.2910 cl         1 866       0.006100
     38 H1          -0.3610     0.0170     1.0210 hc         1 866       0.014700
     39 H1A         -0.3610    -0.8930    -0.4960 hc         1 866       0.014700
     40 H1B         -0.3610     0.8760    -0.5260 hc         1 866       0.014700
     41 H2           1.8920    -0.8850    -0.5110 h1         1 866       0.043200
     42 H2A          1.8920     0.8850    -0.5110 h1         1 866       0.043200
     43 H3           1.5870    -2.0240     1.6890 h1         1 866       0.053200
     44 H3A          2.0960    -1.1410     3.1340 h1         1 866       0.053200
     45 HO1          4.6980    -0.9780     3.3530 ho         1 866       0.422000
     46 H5           3.2520    -3.8050     1.9860 h1         1 866       0.044200
     47 H5A          3.7360    -3.0510     3.5110 h1         1 866       0.044200
     48 HN2          5.9550    -2.8970     1.7630 hn         1 866       0.208500
     49 H8           8.0030    -3.4230     1.3160 h4         1 866       0.004100
     50 HN5          6.4070    -7.1200     4.2640 hn         1 866       0.288300
     51 HN5A         7.3150    -8.2980     3.3730 hn         1 866       0.288300
     52 H11         10.9050    -7.0220     0.7530 ha         1 866       0.127500
     53 H12         12.5610    -8.8110     1.1160 ha         1 866       0.124000
     54 H14         10.8210    -9.6550     4.9290 ha         1 866       0.124000
     55 H15          9.1660    -7.8640     4.5740 ha         1 866       0.127500
     56 H20          3.5720     4.7250    -0.6290 ha         1 866       0.119500
     57 H21          1.3540     5.7860    -0.4920 ha         1 866       0.109000
     58 H22         -0.4560     4.7210     0.7920 ha         1 866       0.119500
@<TRIPOS>BOND
     1     1     2 1   
     2     1    38 1   
     3     1    39 1   
     4     1    40 1   
     5     2     3 1   
     6     2    41 1   
     7     2    42 1   
     8     3     4 1   
     9     3    28 1   
    10     4     5 1   
    11     4    43 1   
    12     4    44 1   
    13     5     6 1   
    14     5     7 1   
    15     5    24 1   
    16     6    45 1   
    17     7     8 1   
    18     7    46 1   
    19     7    47 1   
    20     8     9 1   
    21     8    48 1   
    22     9    10 2   
    23     9    11 1   
    24    11    12 1   
    25    11    15 2   
    26    12    13 2   
    27    12    49 1   
    28    13    14 1   
    29    14    15 1   
    30    14    17 1   
    31    15    16 1   
    32    16    50 1   
    33    16    51 1   
    34    17    18 ar  
    35    17    23 ar  
    36    18    19 ar  
    37    18    52 1   
    38    19    20 ar  
    39    19    53 1   
    40    20    21 1   
    41    20    22 ar  
    42    22    23 ar  
    43    22    54 1   
    44    23    55 1   
    45    24    25 1   
    46    24    26 1   
    47    24    27 1   
    48    28    29 2   
    49    28    30 1   
    50    30    31 ar  
    51    30    36 ar  
    52    31    32 1   
    53    31    33 ar  
    54    33    34 ar  
    55    33    56 1   
    56    34    35 ar  
    57    34    57 1   
    58    35    36 ar  
    59    35    58 1   
    60    36    37 1   
@<TRIPOS>SUBSTRUCTURE
     1 866         1 TEMP              0 ****  ****    0 ROOT
