@<TRIPOS>MOLECULE
molecule
   58    60     1     0     0
SMALL
bcc


@<TRIPOS>ATOM
      1 C1           0.0000     0.0000     0.0000 c3         1 866      -0.127100
      2 C2           1.5310     0.0000     0.0000 c3         1 866       0.092000
      3 N1           2.0190     0.0000     1.3820 n          1 866      -0.476800
      4 C3           2.2630    -1.2690     2.0710 c3         1 866       0.095000
      5 C4           3.7090    -1.7100     1.8310 c3         1 866       0.067800
      6 O1           4.6000    -0.7720     2.4380 oh         1 866      -0.568800
      7 C5           3.9280    -3.0940     2.4460 c3         1 866       0.083000
      8 N2           5.3120    -3.5160     2.2160 ns         1 866      -0.597900
      9 C6           5.7360    -4.7120     2.6730 c          1 866       0.726700
     10 O2           4.9710    -5.4390     3.2770 o          1 866      -0.643100
     11 C7           7.1230    -5.1340     2.4420 cc         1 866      -0.438900
     12 C8           8.1250    -4.4020     1.7620 cc         1 866       0.385200
     13 N3           9.2190    -5.1100     1.7650 nd         1 866      -0.513800
     14 N4           8.9880    -6.3150     2.4350 na         1 866       0.120300
     15 C9           7.7040    -6.3310     2.8560 cd         1 866       0.269300
     16 N5           7.0850    -7.3430     3.5620 nv         1 866      -0.904200
     17 C10          9.9300    -7.3330     2.6390 ca         1 866       0.014800
     18 C11         10.8860    -7.6000     1.6700 ca         1 866      -0.111500
     19 C12         11.8140    -8.6030     1.8730 ca         1 866      -0.154000
     20 C13         11.7900    -9.3420     3.0440 ca         1 866       0.129900
     21 F1          12.6980   -10.3230     3.2410 f          1 866      -0.135900
     22 C14         10.8370    -9.0770     4.0130 ca         1 866      -0.154000
     23 C15          9.9110    -8.0710     3.8160 ca         1 866      -0.111500
     24 C16          3.9790    -1.7730     0.3270 c3         1 866       0.630900
     25 F2           3.7780    -0.5070    -0.2360 f          1 866      -0.216633
     26 F3           5.3010    -2.1760     0.1060 f          1 866      -0.216633
     27 F4           3.1060    -2.6900    -0.2660 f          1 866      -0.216633
     28 C17          2.2440     1.1670     2.0170 c          1 866       0.691700
     29 O3           2.6480     1.1660     3.1640 o          1 866      -0.580100
     30 C18          1.9970     2.4460     1.3220 ca         1 866      -0.118600
     31 C19          3.0180     3.0540     0.5880 ca         1 866       0.059400
     32 Cl1          4.5830     2.3090     0.4910 cl         1 866      -0.075900
     33 C20          2.7810     4.2520    -0.0600 ca         1 866      -0.126500
     34 C21          1.5340     4.8470     0.0160 ca         1 866      -0.100000
     35 C22          0.5180     4.2500     0.7400 ca         1 866      -0.126500
     36 C23          0.7380     3.0510     1.3880 ca         1 866       0.059400
     37 Cl2         -0.5410     2.3010     2.2910 cl         1 866      -0.075900
     38 H1          -0.3610     0.0170     1.0210 hc         1 866       0.044700
     39 H1A         -0.3610    -0.8930    -0.4960 hc         1 866       0.044700
     40 H1B         -0.3610     0.8760    -0.5260 hc         1 866       0.044700
     41 H2           1.8920    -0.8850    -0.5110 h1         1 866       0.063200
     42 H2A          1.8920     0.8850    -0.5110 h1         1 866       0.063200
     43 H3           1.5870    -2.0240     1.6890 h1         1 866       0.080200
     44 H3A          2.0960    -1.1410     3.1340 h1         1 866       0.080200
     45 HO1          4.6980    -0.9780     3.3530 ho         1 866       0.431000
     46 H5           3.2520    -3.8050     1.9860 h1         1 866       0.070700
     47 H5A          3.7360    -3.0510     3.5110 h1         1 866       0.070700
     48 HN2          5.9550    -2.8970     1.7630 hn         1 866       0.336500
     49 H8           8.0030    -3.4230     1.3160 h4         1 866       0.053100
     50 HN5          6.4070    -7.1200     4.2640 hn         1 866       0.456300
     51 HN5A         7.3150    -8.2980     3.3730 hn         1 866       0.456300
     52 H11         10.9050    -7.0220     0.7530 ha         1 866       0.158000
     53 H12         12.5610    -8.8110     1.1160 ha         1 866       0.153000
     54 H14         10.8210    -9.6550     4.9290 ha         1 866       0.153000
     55 H15          9.1660    -7.8640     4.5740 ha         1 866       0.158000
     56 H20          3.5720     4.7250    -0.6290 ha         1 866       0.151500
     57 H21          1.3540     5.7860    -0.4920 ha         1 866       0.145000
     58 H22         -0.4560     4.7210     0.7920 ha         1 866       0.151500
@<TRIPOS>BOND
     1     1     2 1
     2     2     3 1
     3     3     4 1
     4     3    28 1
     5     4     5 1
     6     5     6 1
     7     5     7 1
     8     5    24 1
     9     7     8 1
    10     8     9 1
    11     9    10 2
    12     9    11 1
    13    11    12 1
    14    11    15 2
    15    12    13 2
    16    13    14 1
    17    14    15 1
    18    14    17 1
    19    15    16 1
    20    17    18 ar
    21    17    23 ar
    22    18    19 ar
    23    19    20 ar
    24    20    21 1
    25    20    22 ar
    26    22    23 ar
    27    24    25 1
    28    24    26 1
    29    24    27 1
    30    28    29 2
    31    28    30 1
    32    30    31 ar
    33    30    36 ar
    34    31    32 1
    35    31    33 ar
    36    33    34 ar
    37    34    35 ar
    38    35    36 ar
    39    36    37 1
    40     1    38 1
    41     1    39 1
    42     1    40 1
    43     2    41 1
    44     2    42 1
    45     4    43 1
    46     4    44 1
    47     6    45 1
    48     7    46 1
    49     7    47 1
    50     8    48 1
    51    12    49 1
    52    16    50 1
    53    16    51 1
    54    18    52 1
    55    19    53 1
    56    22    54 1
    57    23    55 1
    58    33    56 1
    59    34    57 1
    60    35    58 1
@<TRIPOS>SUBSTRUCTURE
     1 866         1 TEMP              0 ****  ****    0 ROOT
