@<TRIPOS>MOLECULE
molecule
   57    59     1     0     0
SMALL
bcc


@<TRIPOS>ATOM
      1 O30          0.0000     0.0000     0.0000 os         1 869      -0.328900
      2 C31          1.4290     0.0000     0.0000 c3         1 869       0.127700
      3 C24         -2.0030    -0.0000     1.2820 ca         1 869      -0.201000
      4 C25         -2.6320     0.0000     2.5090 ca         1 869      -0.043000
      5 C26         -1.8750     0.0000     3.6780 cp         1 869      -0.157000
      6 C27         -0.4820     0.0010     3.6040 ca         1 869      -0.043000
      7 C28          0.1410     0.0010     2.3740 ca         1 869      -0.201000
      8 C29         -0.6170    -0.0000     1.2110 ca         1 869       0.156100
      9 C1          -3.1310    -1.1650     5.4860 ca         1 869      -0.065300
     10 C2          -3.7610    -1.1570     6.7290 ca         1 869      -0.094600
     11 C3          -3.8040     0.0210     7.4780 ca         1 869      -0.118000
     12 C4          -3.2250     1.1740     6.9890 ca         1 869      -0.037000
     13 C5          -2.5980     1.1700     5.7580 ca         1 869      -0.276500
     14 C6          -2.5480     0.0010     5.0010 cp         1 869       0.061000
     15 C9          -5.6680    -2.8520     6.7130 cc         1 869      -0.450900
     16 C15         -6.4140    -3.9390     7.1620 cd         1 869       0.191800
     17 C18         -6.3870    -2.2740     5.6400 cc         1 869       0.381200
     18 N16         -7.5210    -4.0040     6.3980 na         1 869       0.079400
     19 N17         -7.4790    -2.9630     5.4650 nd         1 869      -0.508800
     20 O19         -6.0880    -4.7730     8.1760 oh         1 869      -0.478100
     21 C8          -4.3840    -2.3920     7.2530 c          1 869       0.625300
     22 O10         -3.8300    -3.0270     8.1310 o          1 869      -0.537100
     23 S11         -1.8620     2.6480     5.1430 sy         1 869       1.198300
     24 O13         -2.0850     3.6050     6.1700 o          1 869      -0.623300
     25 O12         -0.5440     2.2580     4.7800 o          1 869      -0.623300
     26 C14         -2.8330     3.0590     3.6670 c3         1 869      -0.226300
     27 C20         -8.5890    -4.9990     6.5210 c3         1 869       0.079700
     28 C21         -9.2080    -4.9110     7.9180 c3         1 869      -0.099767
     29 C22         -9.6650    -4.7270     5.4680 c3         1 869      -0.099767
     30 C23         -8.0100    -6.3990     6.3080 c3         1 869      -0.099767
     31 H311         1.7910     0.0050    -1.0210 h1         1 869       0.044033
     32 H312         1.7910    -0.8870     0.5060 h1         1 869       0.044033
     33 H313         1.7910     0.8820     0.5150 h1         1 869       0.044033
     34 H24         -2.5920    -0.0000     0.3720 ha         1 869       0.144500
     35 H25         -3.7140    -0.0000     2.5640 ha         1 869       0.147000
     36 H27          0.1090     0.0020     4.5120 ha         1 869       0.147000
     37 H28          1.2220     0.0020     2.3150 ha         1 869       0.144500
     38 H3          -4.2940     0.0300     8.4440 ha         1 869       0.143000
     39 H4          -3.2610     2.0850     7.5740 ha         1 869       0.163000
     40 H71         -3.1250    -3.2890     5.3370 hc         1 869       0.053700
     41 H72         -3.9110    -2.4600     3.9870 hc         1 869       0.053700
     42 H73         -2.1460    -2.4630     4.1160 hc         1 869       0.053700
     43 H18         -6.0830    -1.4070     5.0650 h4         1 869       0.056100
     44 H19         -5.9880    -4.2770     8.9720 ho         1 869       0.452000
     45 H141        -3.0920     4.1100     3.6860 h1         1 869       0.101367
     46 H142        -3.7390     2.4640     3.6540 h1         1 869       0.101367
     47 H143        -2.2490     2.8460     2.7800 h1         1 869       0.101367
     48 H211       -10.1770    -5.3970     7.9150 hc         1 869       0.052256
     49 H212        -8.5600    -5.4030     8.6330 hc         1 869       0.052256
     50 H213        -9.3270    -3.8710     8.1950 hc         1 869       0.052256
     51 H221       -10.0840    -3.7410     5.6260 hc         1 869       0.052256
     52 H222        -9.2240    -4.7780     4.4800 hc         1 869       0.052256
     53 H223       -10.4490    -5.4710     5.5520 hc         1 869       0.052256
     54 H231        -7.3780    -6.3990     5.4280 hc         1 869       0.052256
     55 H232        -8.8180    -7.1080     6.1720 hc         1 869       0.052256
     56 H233        -7.4230    -6.6830     7.1740 hc         1 869       0.052256
     57 C7          -3.0740    -2.4330     4.6750 c3         1 869      -0.052800
@<TRIPOS>BOND
     1     1     2 1   
     2     1     8 1   
     3     2    31 1   
     4     2    32 1   
     5     2    33 1   
     6     3     4 ar  
     7     3     8 ar  
     8     3    34 1   
     9     4     5 ar  
    10     4    35 1   
    11     5     6 ar  
    12     5    14 1   
    13     6     7 ar  
    14     6    36 1   
    15     7     8 ar  
    16     7    37 1   
    17     9    10 ar  
    18     9    14 ar  
    19     9    57 1   
    20    10    11 ar  
    21    10    21 1   
    22    11    12 ar  
    23    11    38 1   
    24    12    13 ar  
    25    12    39 1   
    26    13    14 ar  
    27    13    23 1   
    28    57    40 1   
    29    57    41 1   
    30    57    42 1   
    31    15    16 2   
    32    15    17 1   
    33    15    21 1   
    34    16    18 1   
    35    16    20 1   
    36    17    19 2   
    37    17    43 1   
    38    18    19 1   
    39    18    27 1   
    40    20    44 1   
    41    21    22 2   
    42    23    24 2   
    43    23    25 2   
    44    23    26 1   
    45    26    45 1   
    46    26    46 1   
    47    26    47 1   
    48    27    28 1   
    49    27    29 1   
    50    27    30 1   
    51    28    48 1   
    52    28    49 1   
    53    28    50 1   
    54    29    51 1   
    55    29    52 1   
    56    29    53 1   
    57    30    54 1   
    58    30    55 1   
    59    30    56 1   
@<TRIPOS>SUBSTRUCTURE
     1 869         1 TEMP              0 ****  ****    0 ROOT
