@<TRIPOS>MOLECULE
869
   57    58     1     0     0
SMALL
bcc


@<TRIPOS>ATOM
      1 O30         0.7990   -0.0400   -1.6820 o         1 869     -0.297000
      2 C31         1.0460    1.1640   -1.6780 c2        1 869      0.145000
      3 C24        -2.2330   -1.0000    0.8750 c2        1 869     -0.456000
      4 C25        -3.0160   -0.5530    1.8440 c1        1 869      0.200000
      5 C26        -1.5030   -0.3790    3.7910 c2        1 869     -0.239000
      6 C27        -0.6620   -1.3580    3.3840 c2        1 869     -0.015000
      7 C28        -0.1050   -1.4190    2.0540 c2        1 869     -0.207000
      8 C29        -0.8120   -1.2400    0.9210 c2        1 869     -0.023000
      9 C1         -2.3200   -1.6370    5.7720 cx        1 869     -0.193000
     10 C2         -3.0930   -1.6850    7.0860 cx        1 869     -0.143000
     11 C3         -3.6140   -0.3870    7.6430 c3        1 869     -0.163000
     12 C4         -3.2560    0.8140    6.9210 c1        1 869     -0.088000
     13 C5         -2.5050    0.8240    5.7220 c2        1 869     -0.921000
     14 C6         -2.1090   -0.3410    5.1060 c2        1 869      0.279000
     15 C9         -5.3010   -2.8550    6.7700 c2        1 869     -0.359000
     16 C15        -6.2790   -3.8750    6.9670 c2        1 869      0.168000
     17 C18        -5.9730   -1.9070    5.9050 c2        1 869     -0.098000
     18 N16        -7.4230   -3.5060    6.2550 na        1 869     -0.130000
     19 N17        -7.2240   -2.3250    5.6220 n2        1 869     -0.073000
     20 O19        -6.2120   -5.0220    7.6890 oh        1 869     -0.232000
     21 C8         -3.9770   -2.8670    7.3290 c2        1 869      0.348000
     22 O10        -3.5750   -3.8330    8.0070 o         1 869     -0.354000
     23 S11        -2.2230    2.4270    5.2810 s6        1 869      2.886000
     24 O13        -1.3860    3.0540    6.2120 o         1 869     -0.955500
     25 O12        -1.7640    2.4880    3.9480 o         1 869     -0.955500
     26 C14        -3.7760    3.0870    5.3320 c3        1 869     -0.926000
     27 C20        -8.6820   -4.2890    6.2020 c3        1 869      0.111000
     28 C21        -9.2550   -4.4590    7.6180 c3        1 869     -0.224000
     29 C22        -9.7450   -3.6010    5.3340 c3        1 869     -0.224000
     30 C23        -8.4110   -5.6830    5.6140 c3        1 869     -0.224000
     31 H311        0.9690   -1.6670    2.0000 ha        1 869      0.150000
     32 H312        0.7920    1.8170   -0.8170 h4        1 869      0.077000
     33 H313        1.5380    1.6670   -2.5380 h4        1 869      0.077000
     34 H24        -0.3030   -1.3000   -0.0610 ha        1 869      0.163000
     35 H25        -2.7180   -1.2160   -0.1030 ha        1 869      0.193000
     36 H27        -1.6750    0.5230    3.1560 ha        1 869      0.212000
     37 H28        -0.3460   -2.1640    4.0720 ha        1 869      0.134000
     38 H3         -3.2400   -0.2610    8.7020 hc        1 869      0.153500
     39 H4         -4.7420   -0.4110    7.7060 hc        1 869      0.153500
     40 H71        -2.4570   -2.4820    5.0650 hc        1 869      0.148000
     41 H72        -0.9470   -1.1370    7.5020 hc        1 869      0.136000
     42 H73        -1.2340   -2.9410    7.2570 hc        1 869      0.136000
     43 H18        -5.5680   -0.9760    5.5030 h4        1 869      0.191000
     44 H19        -5.3120   -5.0520    8.0770 ho        1 869      0.278000
     45 H141       -4.2880    2.9010    6.3120 h1        1 869      0.158333
     46 H142       -3.7440    4.1960    5.1950 h1        1 869      0.158333
     47 H143       -4.4480    2.6860    4.5360 h1        1 869      0.158333
     48 H211       -9.5160   -3.4690    8.0620 hc        1 869      0.093000
     49 H212      -10.1810   -5.0790    7.5560 hc        1 869      0.093000
     50 H213       -8.5220   -4.9760    8.2830 hc        1 869      0.093000
     51 H221      -10.6620   -4.2390    5.3360 hc        1 869      0.093000
     52 H222      -10.0070   -2.5960    5.7410 hc        1 869      0.093000
     53 H223       -9.3910   -3.4850    4.2820 hc        1 869      0.093000
     54 H231       -9.3640   -6.2630    5.6170 hc        1 869      0.093000
     55 H232       -8.0420   -5.6050    4.5640 hc        1 869      0.093000
     56 H233       -7.6550   -6.2310    6.2270 hc        1 869      0.093000
     57 C7         -1.6080   -1.9150    7.0770 cx        1 869     -0.152000
@<TRIPOS>BOND
     1    1    2 1   
     2    2   32 1   
     3    2   33 1   
     4    3    4 1   
     5    3    8 1   
     6    3   35 1   
     7    5    6 1   
     8    5   14 1   
     9    5   36 1   
    10    6    7 1   
    11    6   37 1   
    12    7    8 1   
    13    7   31 1   
    14    8   34 1   
    15    9   10 1   
    16    9   14 1   
    17    9   40 1   
    18    9   57 1   
    19   10   11 1   
    20   10   21 1   
    21   10   57 1   
    22   11   12 1   
    23   11   38 1   
    24   11   39 1   
    25   12   13 1   
    26   13   14 1   
    27   13   23 1   
    28   15   16 1   
    29   15   17 1   
    30   15   21 1   
    31   16   18 1   
    32   16   20 1   
    33   17   19 1   
    34   17   43 1   
    35   18   19 1   
    36   18   27 1   
    37   20   44 1   
    38   21   22 1   
    39   23   24 1   
    40   23   25 1   
    41   23   26 1   
    42   26   45 1   
    43   26   46 1   
    44   26   47 1   
    45   27   28 1   
    46   27   29 1   
    47   27   30 1   
    48   28   48 1   
    49   28   49 1   
    50   28   50 1   
    51   29   51 1   
    52   29   52 1   
    53   29   53 1   
    54   30   54 1   
    55   30   55 1   
    56   30   56 1   
    57   41   57 1   
    58   42   57 1   
@<TRIPOS>SUBSTRUCTURE
     1 869         1 TEMP              0 ****  ****    0 ROOT
