@<TRIPOS>MOLECULE
86A
   61    62     1     0     0
SMALL
bcc


@<TRIPOS>ATOM
      1 C37          0.0000     0.0000     0.0000 ca         1 86A      -0.099500
      2 C38          1.3830     0.0000     0.0000 ca         1 86A      -0.107500
      3 C39          2.0740     0.0000     1.1970 ca         1 86A      -0.122000
      4 C40          1.3820     0.0000     2.3940 ca         1 86A      -0.107500
      5 C41         -0.0000     0.0010     2.3950 ca         1 86A      -0.099500
      6 C36         -0.6910    -0.0010     1.1980 ca         1 86A      -0.074300
      7 C33         -2.1980     0.0000     1.1970 c3         1 86A       0.038900
      8 C24         -2.7080    -1.4430     1.1960 c3         1 86A      -0.096400
      9 C30         -4.2160    -1.4430     1.1970 c          1 86A       0.552100
     10 O31         -4.8220    -0.3930     1.1970 o          1 86A      -0.691100
     11 N29         -4.8890    -2.6100     1.1960 ns         1 86A      -0.079900
     12 C25         -6.3540    -2.6100     1.1960 c3         1 86A      -0.013500
     13 C26         -6.8640    -3.6290     0.1760 c3         1 86A      -0.036700
     14 C28         -6.3490    -3.2590    -1.2170 c3         1 86A      -0.015100
     15 C27         -8.3940    -3.6240     0.1710 c3         1 86A      -0.015100
     16 P24         -6.9620    -3.0560     2.8560 p5         1 86A       0.643600
     17 O34         -6.5430    -4.5740     3.1920 o          1 86A      -0.650500
     18 O35         -6.3660    -2.1450     3.8600 o          1 86A      -0.650500
     19 O23         -8.5660    -2.9210     2.8950 os         1 86A      -0.468200
     20 C1          -9.3340    -3.1010     4.0860 c3         1 86A       0.195400
     21 C2         -10.3070    -4.2350     3.8900 c          1 86A       0.973600
     22 O14        -11.1370    -4.5860     4.8840 o          1 86A      -0.888800
     23 O13        -10.3390    -4.8280     2.8380 o          1 86A      -0.888800
     24 C3         -10.0930    -1.8350     4.3900 ca         1 86A       0.050700
     25 C8         -10.2020    -1.3940     5.6950 ca         1 86A      -0.038000
     26 C4         -10.6740    -1.1140     3.3640 ca         1 86A      -0.036000
     27 C5         -11.3710     0.0480     3.6390 ca         1 86A      -0.080000
     28 C6         -11.4880     0.4930     4.9410 ca         1 86A      -0.252000
     29 C7         -10.9020    -0.2260     5.9750 ca         1 86A      -0.153400
     30 N9         -11.0150     0.2230     7.2940 nu         1 86A      -0.208600
     31 C10        -12.2100     0.7360     7.7460 c2         1 86A       0.269100
     32 N12        -12.2870     1.2530     8.9400 n2         1 86A      -0.754100
     33 N11        -13.3210     0.7040     6.9380 nz         1 86A       0.156400
     34 H37         -0.5420    -0.0010    -0.9380 ha         1 86A       0.109500
     35 H38          1.9240     0.0000    -0.9380 ha         1 86A       0.094000
     36 H39          3.1570    -0.0000     1.1970 ha         1 86A       0.093000
     37 H40          1.9240     0.0010     3.3320 ha         1 86A       0.094000
     38 H41         -0.5420     0.0010     3.3330 ha         1 86A       0.109500
     39 H331        -2.5590     0.5100     2.0820 hc         1 86A       0.033200
     40 H332        -2.5590     0.5110     0.3130 hc         1 86A       0.033200
     41 H241        -2.3480    -1.9530     0.3110 hc         1 86A       0.021700
     42 H242        -2.3470    -1.9550     2.0800 hc         1 86A       0.021700
     43 HN29        -4.3900    -3.4760     1.2400 hn         1 86A       0.163500
     44 H25         -6.7160    -1.6230     0.9320 h1         1 86A       0.065700
     45 H26         -6.5070    -4.6170     0.4430 hc         1 86A       0.046700
     46 H281        -5.2850    -3.4560    -1.2720 hc         1 86A       0.003033
     47 H282        -6.5320    -2.2080    -1.4020 hc         1 86A       0.003033
     48 H283        -6.8650    -3.8520    -1.9620 hc         1 86A       0.003033
     49 H271        -8.7530    -2.6370     0.4330 hc         1 86A       0.003033
     50 H272        -8.7530    -3.8880    -0.8170 hc         1 86A       0.003033
     51 H273        -8.7600    -4.3450     0.8920 hc         1 86A       0.003033
     52 H1          -8.6710    -3.3320     4.9110 h1         1 86A       0.030700
     53 H8          -9.6990    -1.9280     6.4910 ha         1 86A       0.128000
     54 H4         -10.5890    -1.4640     2.3430 ha         1 86A       0.145000
     55 H5         -11.8110     0.6190     2.8300 ha         1 86A       0.095000
     56 H6         -11.9690     1.4420     5.1480 ha         1 86A       0.064000
     57 HN9        -10.2150     0.2160     7.8950 hn         1 86A       0.315800
     58 HN12       -11.4780     1.2760     9.5290 hn         1 86A       0.367400
     59 H111       -14.1460     0.6990     7.5050 hn         1 86A       0.232133
     60 H112       -13.3000    -0.1220     6.3730 hn         1 86A       0.232133
     61 H113       -13.3290     1.5130     6.3480 hn         1 86A       0.232133
@<TRIPOS>BOND
     1     1     2 ar  
     2     1     6 ar  
     3     1    34 1   
     4     2     3 ar  
     5     2    35 1   
     6     3     4 ar  
     7     3    36 1   
     8     4     5 ar  
     9     4    37 1   
    10     5     6 ar  
    11     5    38 1   
    12     6     7 1   
    13     7     8 1   
    14     7    39 1   
    15     7    40 1   
    16     8     9 1   
    17     8    41 1   
    18     8    42 1   
    19     9    10 2   
    20     9    11 1   
    21    11    12 1   
    22    11    43 1   
    23    12    13 1   
    24    12    16 1   
    25    12    44 1   
    26    13    14 1   
    27    13    15 1   
    28    13    45 1   
    29    14    46 1   
    30    14    47 1   
    31    14    48 1   
    32    15    49 1   
    33    15    50 1   
    34    15    51 1   
    35    16    17 1   
    36    16    18 1   
    37    16    19 1   
    38    19    20 1   
    39    20    21 1   
    40    20    24 1   
    41    20    52 1   
    42    21    22 1   
    43    21    23 1   
    44    24    25 ar  
    45    24    26 ar  
    46    25    29 ar  
    47    25    53 1   
    48    26    27 ar  
    49    26    54 1   
    50    27    28 ar  
    51    27    55 1   
    52    28    29 ar  
    53    28    56 1   
    54    29    30 1   
    55    30    31 1   
    56    30    57 1   
    57    31    32 2   
    58    31    33 1   
    59    32    58 1   
    60    33    59 1   
    61    33    60 1   
    62    33    61 1   
@<TRIPOS>SUBSTRUCTURE
     1 86A         1 TEMP              0 ****  ****    0 ROOT
