@<TRIPOS>MOLECULE
molecule
   40    40     1     0     0
SMALL
bcc


@<TRIPOS>ATOM
      1 C01          0.0000     0.0000     0.0000 ca         1 86B      -0.388500
      2 C02          1.3830     0.0000     0.0000 ca         1 86B       0.009500
      3 C03          2.0760     0.0000     1.1950 ca         1 86B      -0.197500
      4 C04          1.3820     0.0010     2.3970 ca         1 86B       0.248100
      5 C05         -0.0050    -0.0000     2.3950 ca         1 86B      -0.197500
      6 C06         -0.6930     0.0060     1.1960 ca         1 86B       0.009500
      7 S07         -0.8800    -0.0010    -1.5260 sy         1 86B       1.228200
      8 O08         -2.1630     0.5440    -1.2500 o          1 86B      -0.523300
      9 O09          0.0020     0.5440    -2.4980 o          1 86B      -0.523300
     10 N10         -1.1250    -1.5820    -1.9510 nz         1 86B      -0.806500
     11 O11          2.0610    -0.0060     3.5740 os         1 86B      -0.295900
     12 C12          3.4880    -0.0050     3.5000 c3         1 86B       0.103400
     13 C13          4.0720    -0.0130     4.9140 c3         1 86B       0.153100
     14 C14          5.5950     0.1140     4.8370 c3         1 86B       0.155800
     15 N15          6.1550     0.1070     6.1950 n7         1 86B      -0.800200
     16 O16          3.7280    -1.2370     5.5650 oh         1 86B      -0.577800
     17 C17          7.6200     0.2270     6.1600 c3         1 86B       0.159500
     18 C18          8.0080     1.7040     6.0780 c3         1 86B      -0.105600
     19 C19          8.2120    -0.3860     7.4310 c3         1 86B      -0.105600
     20 H1           1.9240    -0.0030    -0.9390 ha         1 86B       0.157000
     21 H2           3.1590     0.0000     1.1940 ha         1 86B       0.173000
     22 H3          -0.5490     0.0030     3.3320 ha         1 86B       0.173000
     23 H4          -1.7760     0.0060     1.1940 ha         1 86B       0.157000
     24 H5          -1.6280    -1.6210    -2.8150 hn         1 86B       0.490800
     25 H6          -1.6530    -2.0410    -1.2350 hn         1 86B       0.490800
     26 H7           3.8230    -0.8870     2.9660 h1         1 86B       0.055200
     27 H8           3.8220     0.8820     2.9760 h1         1 86B       0.055200
     28 H9           3.6680     0.8210     5.4750 h1         1 86B       0.048700
     29 H10          5.8560     1.0430     4.3440 h1         1 86B       0.042700
     30 H11          5.9990    -0.7190     4.2750 h1         1 86B       0.042700
     31 H12          5.7710     0.8680     6.7190 hn         1 86B       0.353800
     32 H14          3.0740    -1.0690     6.2230 ho         1 86B       0.414000
     33 H15          8.0040    -0.2960     5.2930 h1         1 86B       0.058700
     34 H16          7.4570     2.2640     6.8240 hc         1 86B       0.041533
     35 H17          7.7710     2.0860     5.0930 hc         1 86B       0.041533
     36 H18          9.0710     1.8090     6.2600 hc         1 86B       0.041533
     37 H19          9.2920    -0.3150     7.3970 hc         1 86B       0.041533
     38 H20          7.9210    -1.4280     7.4980 hc         1 86B       0.041533
     39 H21          7.8420     0.1490     8.2970 hc         1 86B       0.041533
     40 H103        -0.2410    -2.0400    -2.0530 hn         1 86B       0.490800
@<TRIPOS>BOND
     1    16    13 1   
     2    13    12 1   
     3    13    14 1   
     4    15    14 1   
     5    15    17 1   
     6    18    17 1   
     7    12    11 1   
     8    17    19 1   
     9    11     4 1   
    10     4     5 ar  
    11     4     3 ar  
    12     5     6 ar  
    13     3     2 ar  
    14     6     1 ar  
    15     2     1 ar  
    16     1     7 1   
    17    10     7 1   
    18     9     7 2   
    19     7     8 2   
    20     2    20 1   
    21     3    21 1   
    22     5    22 1   
    23     6    23 1   
    24    10    24 1   
    25    10    25 1   
    26    12    26 1   
    27    12    27 1   
    28    13    28 1   
    29    14    29 1   
    30    14    30 1   
    31    15    31 1   
    32    16    32 1   
    33    17    33 1   
    34    18    34 1   
    35    18    35 1   
    36    18    36 1   
    37    19    37 1   
    38    19    38 1   
    39    19    39 1   
    40    40    10 1   
@<TRIPOS>SUBSTRUCTURE
     1 86B         1 TEMP              0 ****  ****    0 ROOT
