@<TRIPOS>MOLECULE
86D
   38    40     1     0     0
SMALL
bcc


@<TRIPOS>ATOM
      1 N1          -1.2750     0.0160    -2.2290 n1         1 86D      -0.347800
      2 C17         -0.7180     0.0010    -1.2400 cg         1 86D       0.213800
      3 C6           0.0000     0.0000     0.0000 ca         1 86D       0.081000
      4 C7           1.3950     0.0000     0.0000 ca         1 86D      -0.123000
      5 C8           2.0840     0.0000     1.2020 ca         1 86D       0.130100
      6 C9           1.3870    -0.0010     2.4030 ca         1 86D      -0.132000
      7 C10          0.0020    -0.0000     2.4050 ca         1 86D       0.129900
      8 F1          -0.6700    -0.0020     3.5770 f          1 86D      -0.116900
      9 C5          -0.6950     0.0050     1.2110 ca         1 86D      -0.115000
     10 O1           3.4430     0.0010     1.2060 os         1 86D      -0.212200
     11 C1           4.0820     1.1110     0.7530 ca         1 86D       0.214100
     12 C14          5.4640     1.1070     0.6110 ca         1 86D      -0.145300
     13 C15          6.4750     0.0150     0.8880 c3         1 86D       0.013900
     14 C11          7.8380     0.7360     0.9630 c3         1 86D       0.334600
     15 F5           8.8540    -0.0630     0.4300 f          1 86D      -0.207300
     16 F2           8.1340     1.1020     2.2810 f          1 86D      -0.207300
     17 C13          6.1110     2.2370     0.1490 ca         1 86D       0.044700
     18 C12          7.6020     1.9820     0.0840 c3         1 86D       0.205400
     19 O4           8.0020     1.7230    -1.2630 oh         1 86D      -0.546800
     20 C4           5.3790     3.3680    -0.1710 ca         1 86D      -0.153500
     21 C3           4.0040     3.3740    -0.0320 ca         1 86D       0.052000
     22 C2           3.3530     2.2440     0.4260 ca         1 86D      -0.222000
     23 S1           6.2050     4.8090    -0.7590 sy         1 86D       0.870300
     24 O2           7.5280     4.3690    -1.0300 o          1 86D      -0.555800
     25 O3           5.3670     5.2940    -1.8000 o          1 86D      -0.555800
     26 C16          6.1900     5.9490     0.6530 c3         1 86D       0.436700
     27 F3           4.8700     6.3080     0.9480 f          1 86D      -0.193800
     28 F4           6.7620     5.3200     1.7640 f          1 86D      -0.193800
     29 H1           1.9380     0.0000    -0.9370 ha         1 86D       0.136000
     30 H2           1.9280    -0.0010     3.3410 ha         1 86D       0.138000
     31 H3          -1.7780     0.0050     1.2150 ha         1 86D       0.134000
     32 H4           6.2550    -0.4690     1.8310 hc         1 86D       0.052700
     33 H5           6.4780    -0.7060     0.0790 hc         1 86D       0.052700
     34 H6           8.1430     2.8300     0.4860 h1         1 86D       0.052700
     35 H7           8.9060     1.9650    -1.3740 ho         1 86D       0.412000
     36 H8           3.4370     4.2600    -0.2880 ha         1 86D       0.124000
     37 H9           2.2750     2.2470     0.5350 ha         1 86D       0.133000
     38 H12          6.7600     6.8360     0.4070 h3         1 86D       0.064700
@<TRIPOS>BOND
     1     1     2 3   
     2     2     3 1   
     3     3     4 ar  
     4     3     9 ar  
     5     4     5 ar  
     6     4    29 1   
     7     5     6 ar  
     8     5    10 1   
     9     6     7 ar  
    10     6    30 1   
    11     7     8 1   
    12     7     9 ar  
    13     9    31 1   
    14    10    11 1   
    15    11    12 ar  
    16    11    22 ar  
    17    12    13 1   
    18    12    17 ar  
    19    13    14 1   
    20    13    32 1   
    21    13    33 1   
    22    14    15 1   
    23    14    16 1   
    24    14    18 1   
    25    17    18 1   
    26    17    20 ar  
    27    18    19 1   
    28    18    34 1   
    29    19    35 1   
    30    20    21 ar  
    31    20    23 1   
    32    21    22 ar  
    33    21    36 1   
    34    22    37 1   
    35    23    24 2   
    36    23    25 2   
    37    23    26 1   
    38    26    27 1   
    39    26    28 1   
    40    26    38 1   
@<TRIPOS>SUBSTRUCTURE
     1 86D         1 TEMP              0 ****  ****    0 ROOT
