@<TRIPOS>MOLECULE
molecule
   38    40     1     0     0
SMALL
bcc


@<TRIPOS>ATOM
      1 N1          -1.2750     0.0160    -2.2290 n1         1 86D      -0.331800
      2 C17         -0.7180     0.0010    -1.2400 cg         1 86D       0.229800
      3 C6           0.0000     0.0000     0.0000 ca         1 86D       0.026000
      4 C7           1.3950     0.0000     0.0000 ca         1 86D      -0.134000
      5 C8           2.0840     0.0000     1.2020 ca         1 86D       0.118100
      6 C9           1.3870    -0.0010     2.4030 ca         1 86D      -0.154000
      7 C10          0.0020    -0.0000     2.4050 ca         1 86D       0.148900
      8 F1          -0.6700    -0.0020     3.5770 f          1 86D      -0.123900
      9 C5          -0.6950     0.0050     1.2110 ca         1 86D      -0.136000
     10 O1           3.4430     0.0010     1.2060 os         1 86D      -0.234200
     11 C1           4.0820     1.1110     0.7530 ca         1 86D       0.205100
     12 C14          5.4640     1.1070     0.6110 ca         1 86D      -0.119300
     13 C15          6.4750     0.0150     0.8880 c3         1 86D      -0.059100
     14 C11          7.8380     0.7360     0.9630 c3         1 86D       0.370600
     15 F5           8.8540    -0.0630     0.4300 f          1 86D      -0.220300
     16 F2           8.1340     1.1020     2.2810 f          1 86D      -0.220300
     17 C13          6.1110     2.2370     0.1490 ca         1 86D       0.045700
     18 C12          7.6020     1.9820     0.0840 c3         1 86D       0.160400
     19 O4           8.0020     1.7230    -1.2630 oh         1 86D      -0.563800
     20 C4           5.3790     3.3680    -0.1710 ca         1 86D      -0.288500
     21 C3           4.0040     3.3740    -0.0320 ca         1 86D       0.015000
     22 C2           3.3530     2.2440     0.4260 ca         1 86D      -0.220000
     23 S1           6.2050     4.8090    -0.7590 sy         1 86D       1.161300
     24 O2           7.5280     4.3690    -1.0300 o          1 86D      -0.579300
     25 O3           5.3670     5.2940    -1.8000 o          1 86D      -0.579300
     26 C16          6.1900     5.9490     0.6530 c3         1 86D       0.296700
     27 F3           4.8700     6.3080     0.9480 f          1 86D      -0.208300
     28 F4           6.7620     5.3200     1.7640 f          1 86D      -0.208300
     29 H1           1.9380     0.0000    -0.9370 ha         1 86D       0.164000
     30 H2           1.9280    -0.0010     3.3410 ha         1 86D       0.168000
     31 H3          -1.7780     0.0050     1.2150 ha         1 86D       0.164000
     32 H4           6.2550    -0.4690     1.8310 hc         1 86D       0.089200
     33 H5           6.4780    -0.7060     0.0790 hc         1 86D       0.089200
     34 H6           8.1430     2.8300     0.4860 h1         1 86D       0.084700
     35 H7           8.9060     1.9650    -1.3740 ho         1 86D       0.427000
     36 H8           3.4370     4.2600    -0.2880 ha         1 86D       0.159000
     37 H9           2.2750     2.2470     0.5350 ha         1 86D       0.156000
     38 H12          6.7600     6.8360     0.4070 h3         1 86D       0.102700
@<TRIPOS>BOND
     1     1     2 3
     2     2     3 1
     3     3     4 ar
     4     3     9 ar
     5     4     5 ar
     6     5     6 ar
     7     5    10 1
     8     6     7 ar
     9     7     8 1
    10     7     9 ar
    11    10    11 1
    12    11    12 ar
    13    11    22 ar
    14    12    13 1
    15    12    17 ar
    16    13    14 1
    17    14    15 1
    18    14    16 1
    19    14    18 1
    20    17    18 1
    21    17    20 ar
    22    18    19 1
    23    20    21 ar
    24    20    23 1
    25    21    22 ar
    26    23    24 2
    27    23    25 2
    28    23    26 1
    29    26    27 1
    30    26    28 1
    31     4    29 1
    32     6    30 1
    33     9    31 1
    34    13    32 1
    35    13    33 1
    36    18    34 1
    37    19    35 1
    38    21    36 1
    39    22    37 1
    40    26    38 1
@<TRIPOS>SUBSTRUCTURE
     1 86D         1 TEMP              0 ****  ****    0 ROOT
