@<TRIPOS>MOLECULE
molecule
   20    21     1     0     0
SMALL
bcc


@<TRIPOS>ATOM
      1 C11          0.0000     0.0000     0.0000 cc         1 86J       0.034900
      2 C01          2.2370     0.0010    -1.2230 c3         1 86J      -0.003900
      3 C02          1.3570     0.0000     0.0000 cd         1 86J       0.081400
      4 N03          1.7820     0.0000     1.2680 nd         1 86J      -0.305600
      5 C04          0.7360     0.0000     2.0790 cc         1 86J      -0.037300
      6 C05          0.6240     0.0010     3.4840 cc         1 86J      -0.057000
      7 C06         -0.6090     0.0010     4.0560 cd         1 86J      -0.165000
      8 C07         -1.7570     0.0020     3.2420 cd         1 86J       0.101900
      9 F08         -2.9830     0.0020     3.8090 f          1 86J      -0.129900
     10 C09         -1.6390     0.0010     1.8980 cc         1 86J      -0.125300
     11 N10         -0.4020     0.0010     1.3070 na         1 86J       0.037700
     12 N12         -0.8320     0.0050    -1.1260 nv         1 86J      -0.938600
     13 H011         2.0350     0.8870    -1.8130 hc         1 86J       0.048700
     14 H012         2.0320    -0.8820    -1.8160 hc         1 86J       0.048700
     15 H013         3.2770    -0.0010    -0.9190 hc         1 86J       0.048700
     16 H051         1.5140     0.0000     4.1030 ha         1 86J       0.166000
     17 H061        -0.7070     0.0900     5.1310 ha         1 86J       0.156000
     18 H091        -2.5290     0.0010     1.2800 h4         1 86J       0.173000
     19 H122        -1.1410    -0.8600    -1.5240 hn         1 86J       0.431800
     20 H121        -1.1380     0.8740    -1.5190 hn         1 86J       0.431800
@<TRIPOS>BOND
     1    12     1 1
     2     1    11 1
     3     1     3 2
     4    10    11 1
     5    10     8 2
     6     9     8 1
     7    11     5 1
     8     2     3 1
     9     8     7 1
    10     3     4 1
    11     5     4 2
    12     5     6 1
    13     7     6 2
    14     2    13 1
    15     2    14 1
    16     2    15 1
    17     6    16 1
    18     7    17 1
    19    10    18 1
    20    12    19 1
    21    12    20 1
@<TRIPOS>SUBSTRUCTURE
     1 86J         1 TEMP              0 ****  ****    0 ROOT
