@<TRIPOS>MOLECULE
molecule
   28    28     1     0     0
SMALL
bcc


@<TRIPOS>ATOM
      1 Cl           0.0000     0.0000     0.0000 cl         1 86L      -0.036400
      2 C9           1.7360     0.0000     0.0000 ca         1 86L      -0.007600
      3 C8           2.4280     0.0000     1.1970 ca         1 86L      -0.063000
      4 C6           3.8110     0.0010     1.1960 ca         1 86L      -0.242300
      5 C7           4.5630     0.0010     2.5020 c3         1 86L       0.167100
      6 N            4.8080    -1.3830     2.9270 nz         1 86L      -0.811600
      7 C5           4.5040     0.0010     0.0010 ca         1 86L      -0.059000
      8 C4           3.8180     0.0000    -1.1990 ca         1 86L      -0.209000
      9 C3           2.4310    -0.0060    -1.2020 ca         1 86L       0.210100
     10 O            1.7540    -0.0060    -2.3810 os         1 86L      -0.290900
     11 C1           2.5280     0.1190    -3.5740 c3         1 86L       0.128100
     12 C2           3.0340    -1.2600    -4.0030 c3         1 86L      -0.106600
     13 C            1.6600     0.7120    -4.6860 c3         1 86L      -0.106600
     14 H1           1.8870     0.0070     2.1350 ha         1 86L       0.150000
     15 H2           3.9770     0.5120     3.2570 hx         1 86L       0.111200
     16 H3           5.5100     0.5120     2.3740 hx         1 86L       0.111200
     17 H4           5.2210    -1.3840     3.8390 hn         1 86L       0.453800
     18 H5           5.4290    -1.8260     2.2800 hn         1 86L       0.453800
     19 H7           5.5880     0.0040     0.0040 ha         1 86L       0.137000
     20 H8           4.3620    -0.0020    -2.1350 ha         1 86L       0.171000
     21 H9           3.3730     0.7720    -3.3900 h1         1 86L       0.047700
     22 H10          2.7910    -1.9870    -3.2380 hc         1 86L       0.056200
     23 H11          4.1080    -1.2240    -4.1390 hc         1 86L       0.056200
     24 H12          2.5610    -1.5440    -4.9350 hc         1 86L       0.056200
     25 H13          0.8140     0.0600    -4.8700 hc         1 86L       0.056200
     26 H14          1.3030     1.6890    -4.3830 hc         1 86L       0.056200
     27 H15          2.2460     0.8070    -5.5910 hc         1 86L       0.056200
     28 HN3          3.9420    -1.8850     2.9440 hn         1 86L       0.453800
@<TRIPOS>BOND
     1    10     9 1   
     2    10    11 1   
     3     8     9 ar  
     4     8     7 ar  
     5    12    11 1   
     6     9     2 ar  
     7     7     4 ar  
     8    11    13 1   
     9     2     1 1   
    10     2     3 ar  
    11     4     3 ar  
    12     4     5 1   
    13     5     6 1   
    14     3    14 1   
    15     5    15 1   
    16     5    16 1   
    17     6    17 1   
    18     6    18 1   
    19     7    19 1   
    20     8    20 1   
    21    11    21 1   
    22    12    22 1   
    23    12    23 1   
    24    12    24 1   
    25    13    25 1   
    26    13    26 1   
    27    13    27 1   
    28    28     6 1   
@<TRIPOS>SUBSTRUCTURE
     1 86L         1 TEMP              0 ****  ****    0 ROOT
