@<TRIPOS>MOLECULE
molecule
   34    36     1     0     0
SMALL
bcc


@<TRIPOS>ATOM
      1 C10          0.0000     0.0000     0.0000 cc         1 86M      -0.158000
      2 C11          1.3500     0.0000     0.0000 cd         1 86M      -0.083300
      3 C12          3.3840    -0.0000     1.4580 cd         1 86M      -0.255100
      4 C13          3.5070    -0.0010     2.8040 cc         1 86M       0.039600
      5 C14          1.3810    -0.0000     2.3730 cd         1 86M      -0.021300
      6 C15         -2.4740    -0.0050     5.8130 ca         1 86M       0.366200
      7 C1          -4.6560    -0.0070     9.1350 c3         1 86M       0.138700
      8 C2          -4.5820    -0.0050     6.7600 ca         1 86M       0.612600
      9 C3          -5.1950    -0.0040     5.5180 ca         1 86M      -0.198300
     10 C4          -4.3980    -0.0030     4.3660 ca         1 86M      -0.167600
     11 C5          -5.0040    -0.0010     3.0260 c          1 86M       0.584500
     12 C6          -3.0000    -0.0030     4.5290 ca         1 86M       0.036800
     13 O2          -2.1800    -0.0020     3.4480 os         1 86M      -0.301900
     14 C8          -0.0280    -0.0000     2.3910 cd         1 86M      -0.062300
     15 C9          -0.7090    -0.0010     1.2130 cc         1 86M      -0.095000
     16 N1           2.0450     0.0000     1.1740 na         1 86M       0.052700
     17 N2           2.2860    -0.0010     3.3430 nc         1 86M      -0.328600
     18 N3          -3.2630    -0.0060     6.8670 nb         1 86M      -0.718000
     19 H10A        -0.5390    -0.0010    -0.9400 ha         1 86M       0.153000
     20 H11A         1.8860     0.0010    -0.9410 h4         1 86M       0.160000
     21 H12A         4.1940    -0.0000     0.7390 h4         1 86M       0.179000
     22 H13A         4.4400    -0.0030     3.3530 h4         1 86M       0.182000
     23 H15A        -1.4000    -0.0050     5.9510 h4         1 86M       0.038100
     24 HC1A        -4.0350    -0.8920     9.2050 h1         1 86M       0.046700
     25 HC1C        -4.0380     0.8770     9.2310 h1         1 86M       0.046700
     26 HC1B        -5.3940    -0.0200     9.9290 h1         1 86M       0.046700
     27 HC3A        -6.2600    -0.1880     5.4400 ha         1 86M       0.157000
     28 HC5B        -6.0820     0.0000     2.9190 h4         1 86M       0.006200
     29 HC7B        -0.5090     0.8810     4.2680 h1         1 86M       0.059700
     30 HC7A        -0.5090    -0.8870     4.2650 h1         1 86M       0.059700
     31 HC9A        -1.7920    -0.0010     1.2110 ha         1 86M       0.181000
     32 O3          -4.2960     0.0000     2.0410 o          1 86M      -0.506100
     33 C7          -0.7740    -0.0020     3.7000 c3         1 86M       0.192700
     34 O1          -5.3450    -0.0060     7.8830 os         1 86M      -0.443100
@<TRIPOS>BOND
     1     1     2 2   
     2     1    15 1   
     3     2    16 1   
     4    15    14 2   
     5     6    18 ar  
     6     6    12 ar  
     7    18     8 ar  
     8    16     5 1   
     9    16     3 1   
    10    13    12 1   
    11    13    33 1   
    12    14     5 1   
    13    14    33 1   
    14    12    10 ar  
    15     5    17 2   
    16     3     4 2   
    17     8    34 1   
    18     8     9 ar  
    19    34     7 1   
    20    10     9 ar  
    21    10    11 1   
    22    17     4 1   
    23     1    19 1   
    24     2    20 1   
    25     3    21 1   
    26     4    22 1   
    27     6    23 1   
    28     7    24 1   
    29     7    25 1   
    30     7    26 1   
    31     9    27 1   
    32    11    28 1   
    33    33    29 1   
    34    33    30 1   
    35    15    31 1   
    36    11    32 2   
@<TRIPOS>SUBSTRUCTURE
     1 86M         1 TEMP              0 ****  ****    0 ROOT
