@<TRIPOS>MOLECULE
molecule
   40    42     1     0     0
SMALL
bcc


@<TRIPOS>ATOM
      1 O20          0.0000     0.0000     0.0000 o          1 86U      -0.512100
      2 C19          1.2070     0.0000     0.0000 c          1 86U       0.528100
      3 C18          1.9870     0.0000     1.2980 c3         1 86U      -0.181400
      4 C17          3.0530     1.1000     1.2150 c3         1 86U      -0.119400
      5 C16          3.8650     0.9150    -0.0680 c3         1 86U       0.148800
      6 N15          2.9920     1.0700    -1.2390 n7         1 86U      -0.798200
      7 C14          1.9870    -0.0080    -1.2970 c3         1 86U       0.070500
      8 C13          1.0360     0.2380    -2.4690 c3         1 86U      -0.066400
      9 C12          1.8050     0.1050    -3.7860 c3         1 86U      -0.100400
     10 C11          0.8530     0.3510    -4.9590 c3         1 86U       0.087000
     11 N10          1.5890     0.2250    -6.2200 n          1 86U      -0.383300
     12 C22          2.1850     1.3130    -6.7600 c          1 86U       0.709100
     13 O23          2.1230     2.4020    -6.2180 o          1 86U      -0.614500
     14 C06          2.9100     1.1300    -8.0250 ca         1 86U      -0.200600
     15 C05          3.5570     2.1870    -8.6620 ca         1 86U      -0.070000
     16 C03          4.2240     1.9610    -9.8480 ca         1 86U       0.072900
     17 F40          4.8520     2.9830   -10.4680 f          1 86U      -0.123900
     18 C02          4.2530     0.6870   -10.4090 ca         1 86U       0.135900
     19 F41          4.9120     0.4840   -11.5720 f          1 86U      -0.121900
     20 C24          3.6180    -0.3700    -9.7920 ca         1 86U      -0.143000
     21 C07          2.9380    -0.1640    -8.5920 ca         1 86U       0.206400
     22 N08          2.3000    -1.1760    -7.9520 nc         1 86U      -0.650100
     23 C09          1.6720    -0.9860    -6.8320 cd         1 86U       0.517800
     24 H1           1.3180     0.2030     2.1260 hc         1 86U       0.071700
     25 H2           2.4660    -0.9620     1.4360 hc         1 86U       0.071700
     26 H3           3.7110     1.0310     2.0720 hc         1 86U       0.053700
     27 H4           2.5700     2.0700     1.2000 hc         1 86U       0.053700
     28 H5           4.6500     1.6610    -0.1060 h1         1 86U       0.061700
     29 H6           4.3020    -0.0760    -0.0760 h1         1 86U       0.061700
     30 H7           2.5290     1.9560    -1.1950 hn         1 86U       0.362800
     31 H9           2.4850    -0.9630    -1.4160 h1         1 86U       0.085700
     32 H10          0.6180     1.2340    -2.3930 hc         1 86U       0.058200
     33 H11          0.2350    -0.4920    -2.4440 hc         1 86U       0.058200
     34 H12          2.6050     0.8350    -3.8120 hc         1 86U       0.062200
     35 H13          2.2220    -0.8920    -3.8620 hc         1 86U       0.062200
     36 H14          0.4360     1.3480    -4.8820 h1         1 86U       0.070700
     37 H15          0.0530    -0.3780    -4.9330 h1         1 86U       0.070700
     38 H16          3.6420     3.1480    -8.1670 ha         1 86U       0.176000
     39 H17          3.6470    -1.3570   -10.2380 ha         1 86U       0.172000
     40 H18          1.1890    -1.8340    -6.3630 h5         1 86U       0.059800
@<TRIPOS>BOND
     1     4     3 1   
     2     4     5 1   
     3     3     2 1   
     4     1     2 2   
     5     5     6 1   
     6     2     7 1   
     7     7     6 1   
     8     7     8 1   
     9     8     9 1   
    10     9    10 1   
    11    10    11 1   
    12    11    23 1   
    13    11    12 1   
    14    23    22 2   
    15    13    12 2   
    16    12    14 1   
    17    22    21 1   
    18    14    21 ar  
    19    14    15 ar  
    20    21    20 ar  
    21    15    16 ar  
    22    20    18 ar  
    23    16    18 ar  
    24    16    17 1   
    25    18    19 1   
    26     3    24 1   
    27     3    25 1   
    28     4    26 1   
    29     4    27 1   
    30     5    28 1   
    31     5    29 1   
    32     6    30 1   
    33     7    31 1   
    34     8    32 1   
    35     8    33 1   
    36     9    34 1   
    37     9    35 1   
    38    10    36 1   
    39    10    37 1   
    40    15    38 1   
    41    20    39 1   
    42    23    40 1   
@<TRIPOS>SUBSTRUCTURE
     1 86U         1 TEMP              0 ****  ****    0 ROOT
