@<TRIPOS>MOLECULE
molecule
   65    69     1     0     0
SMALL
bcc


@<TRIPOS>ATOM
      1 CBD          0.0000     0.0000     0.0000 c3         1 86V       0.148800
      2 CBE          1.5400     0.0000     0.0000 c3         1 86V      -0.084700
      3 CBH          2.0710     1.2560    -0.6940 c3         1 86V      -0.084100
      4 CBF          1.9450     0.0000     1.4920 c3         1 86V      -0.079400
      5 CBG          0.6840    -0.5650     2.1920 c3         1 86V       0.137800
      6 NBC         -0.4330     0.0300     1.4140 n3         1 86V      -0.692600
      7 CBB         -1.6730    -0.7370     1.6010 c3         1 86V       0.153800
      8 CBA         -2.1860    -0.5360     3.0280 c3         1 86V       0.142400
      9 OAZ         -2.5570     0.8320     3.2120 os         1 86V      -0.310900
     10 CAW         -3.0370     1.1830     4.4340 ca         1 86V       0.150100
     11 CAX         -3.4160     2.4940     4.6820 ca         1 86V      -0.192000
     12 CAY         -3.9030     2.8480     5.9250 ca         1 86V      -0.079500
     13 CAV         -3.1550     0.2280     5.4340 ca         1 86V      -0.192000
     14 CAU         -3.6440     0.5870     6.6750 ca         1 86V      -0.079500
     15 CAT         -4.0150     1.8950     6.9220 ca         1 86V      -0.163300
     16 CAI         -4.5470     2.2840     8.2770 c3         1 86V       0.262600
     17 OAH         -3.7850     1.6250     9.2870 os         1 86V      -0.313900
     18 CAE         -3.9890     0.2930     9.4590 ca         1 86V       0.161100
     19 CAD         -2.9550    -0.5450     9.8260 ca         1 86V      -0.182000
     20 CAC         -3.1990    -1.9000    10.0120 ca         1 86V       0.135100
     21 OAG         -2.1820    -2.7250    10.3730 oh         1 86V      -0.521100
     22 CAB         -4.4760    -2.4170     9.8320 ca         1 86V      -0.189000
     23 CAA         -5.5150    -1.5900     9.4580 ca         1 86V      -0.074000
     24 CAF         -5.2750    -0.2300     9.2620 ca         1 86V      -0.135800
     25 CAK         -6.3490     0.6810     8.8260 ce         1 86V      -0.029400
     26 CAR         -7.7940     0.2620     8.8910 c3         1 86V      -0.048900
     27 CAJ         -6.0010     1.8980     8.3680 cf         1 86V      -0.113400
     28 CAL         -7.0430     2.8540     7.9550 ca         1 86V      -0.059800
     29 CAM         -7.9410     3.3630     8.8980 ca         1 86V      -0.104000
     30 CAN         -8.9150     4.2560     8.5070 ca         1 86V      -0.155500
     31 CAO         -9.0040     4.6520     7.1790 ca         1 86V       0.106100
     32 OAS         -9.9660     5.5330     6.7990 oh         1 86V      -0.522100
     33 CAP         -8.1140     4.1500     6.2380 ca         1 86V      -0.155500
     34 CAQ         -7.1340     3.2590     6.6210 ca         1 86V      -0.104000
     35 H1          -0.3680    -0.8990    -0.4790 h1         1 86V       0.041700
     36 H2          -0.3680     0.8780    -0.5160 h1         1 86V       0.041700
     37 H3           1.9140    -0.8920    -0.4880 hc         1 86V       0.049700
     38 H4           1.6450     2.1350    -0.2250 hc         1 86V       0.037033
     39 H5           1.7920     1.2350    -1.7410 hc         1 86V       0.037033
     40 H6           3.1500     1.2880    -0.6090 hc         1 86V       0.037033
     41 H7           2.7960    -0.6490     1.6560 hc         1 86V       0.053200
     42 H8           2.1510     1.0080     1.8320 hc         1 86V       0.053200
     43 H9           0.6440    -0.2390     3.2250 h1         1 86V       0.041700
     44 H10          0.6630    -1.6460     2.1240 h1         1 86V       0.041700
     45 H12         -2.4200    -0.3920     0.8960 h1         1 86V       0.047200
     46 H13         -1.4760    -1.7890     1.4330 h1         1 86V       0.047200
     47 H14         -3.0490    -1.1690     3.1940 h1         1 86V       0.037200
     48 H15         -1.4060    -0.7960     3.7330 h1         1 86V       0.037200
     49 H16         -3.3280     3.2410     3.9020 ha         1 86V       0.141500
     50 H17         -4.1970     3.8720     6.1200 ha         1 86V       0.142000
     51 H18         -2.8640    -0.7980     5.2410 ha         1 86V       0.141500
     52 H19         -3.7340    -0.1570     7.4570 ha         1 86V       0.142000
     53 H20         -4.4560     3.3560     8.4070 h1         1 86V       0.100700
     54 H21         -1.9790    -0.1350    10.0530 ha         1 86V       0.158000
     55 H22         -2.1650    -2.8120    11.3120 ho         1 86V       0.423000
     56 H23         -4.6550    -3.4750     9.9800 ha         1 86V       0.142000
     57 H24         -6.5100    -1.9940     9.3180 ha         1 86V       0.141000
     58 H25         -8.2130     0.5560     9.8470 hc         1 86V       0.048367
     59 H26         -7.8640    -0.8130     8.7820 hc         1 86V       0.048367
     60 H27         -8.3460     0.7430     8.0930 hc         1 86V       0.048367
     61 H28         -7.8720     3.0540     9.9340 ha         1 86V       0.143500
     62 H29         -9.6110     4.6510     9.2370 ha         1 86V       0.142000
     63 H30        -10.7560     5.0640     6.5870 ho         1 86V       0.419000
     64 H31         -8.1870     4.4630     5.2040 ha         1 86V       0.142000
     65 H32         -6.4400     2.8680     5.8860 ha         1 86V       0.143500
@<TRIPOS>BOND
     1    33    34 ar
     2    33    31 ar
     3    34    28 ar
     4    32    31 1
     5    31    30 ar
     6    28    27 1
     7    28    29 ar
     8    27    16 1
     9    27    25 2
    10    26    25 1
    11    17    16 1
    12    17    18 1
    13    16    15 1
    14    25    24 1
    15    18    24 ar
    16    18    19 ar
    17    24    23 ar
    18    30    29 ar
    19    19    20 ar
    20    23    22 ar
    21    15    12 ar
    22    15    14 ar
    23    20    22 ar
    24    20    21 1
    25    12    11 ar
    26    14    13 ar
    27    11    10 ar
    28    13    10 ar
    29    10     9 1
    30     9     8 1
    31     8     7 1
    32     7     6 1
    33     6     5 1
    34     6     1 1
    35     5     4 1
    36     1     2 1
    37     4     2 1
    38     2     3 1
    39     1    35 1
    40     1    36 1
    41     2    37 1
    42     3    38 1
    43     3    39 1
    44     3    40 1
    45     4    41 1
    46     4    42 1
    47     5    43 1
    48     5    44 1
    49     7    45 1
    50     7    46 1
    51     8    47 1
    52     8    48 1
    53    11    49 1
    54    12    50 1
    55    13    51 1
    56    14    52 1
    57    16    53 1
    58    19    54 1
    59    21    55 1
    60    22    56 1
    61    23    57 1
    62    26    58 1
    63    26    59 1
    64    26    60 1
    65    29    61 1
    66    30    62 1
    67    32    63 1
    68    33    64 1
    69    34    65 1
@<TRIPOS>SUBSTRUCTURE
     1 86V         1 TEMP              0 ****  ****    0 ROOT
