@<TRIPOS>MOLECULE
molecule
   40    42     1     0     0
SMALL
bcc


@<TRIPOS>ATOM
      1 C12          0.0000     0.0000     0.0000 c3         1 86X       0.087000
      2 C14          2.0390    -0.0000    -1.4420 c3         1 86X      -0.066400
      3 C15          3.5700    -0.0010    -1.4430 c3         1 86X       0.070500
      4 C17          5.5270    -1.3440    -0.9520 c3         1 86X       0.148800
      5 C20          4.0780     0.1230    -2.8620 c          1 86X       0.528100
      6 O21          3.3270     0.3840    -3.7720 o          1 86X      -0.512100
      7 C19          5.5560    -0.0890    -3.1100 c3         1 86X      -0.181400
      8 C18          5.9740    -1.3900    -2.4150 c3         1 86X      -0.119400
      9 N16          4.0640    -1.2670    -0.8780 n7         1 86X      -0.801200
     10 C13          1.5300     0.0000     0.0000 c3         1 86X      -0.100400
     11 N11         -0.4880     0.0000     1.3820 n          1 86X      -0.383300
     12 C22         -0.7110     1.1760     2.0140 c          1 86X       0.710100
     13 O23         -0.5150     2.2400     1.4560 o          1 86X      -0.616500
     14 C06         -1.2010     1.1180     3.3980 ca         1 86X      -0.218600
     15 C05         -1.4620     2.2710     4.1350 ca         1 86X      -0.021000
     16 C03         -1.9200     2.1600     5.4300 ca         1 86X      -0.044600
     17 Cl4         -2.2470     3.5940     6.3540 cl         1 86X      -0.079400
     18 C02         -2.1240     0.9080     6.0030 ca         1 86X       0.177900
     19 F01         -2.5750     0.8200     7.2740 f          1 86X      -0.120900
     20 C08         -1.8710    -0.2440     5.2880 ca         1 86X      -0.159000
     21 C07         -1.4060    -0.1550     3.9770 ca         1 86X       0.221400
     22 N09         -1.1450    -1.2640     3.2370 nc         1 86X      -0.652100
     23 C10         -0.7180    -1.1800     2.0140 cd         1 86X       0.521800
     24 H1          -0.3610    -0.8850    -0.5110 h1         1 86X       0.070700
     25 H2          -0.3610     0.8850    -0.5110 h1         1 86X       0.070700
     26 H3           1.6770    -0.8840    -1.9530 hc         1 86X       0.057700
     27 H4           1.6790     0.8850    -1.9530 hc         1 86X       0.057700
     28 H5           3.9390     0.8280    -0.8520 h1         1 86X       0.090700
     29 H6           5.9560    -0.4710    -0.4740 h1         1 86X       0.061700
     30 H7           5.8650    -2.2400    -0.4450 h1         1 86X       0.061700
     31 H8           6.1180     0.7410    -2.6980 hc         1 86X       0.072200
     32 H9           5.7400    -0.1690    -4.1750 hc         1 86X       0.072200
     33 H10          7.0520    -1.4940    -2.4600 hc         1 86X       0.053200
     34 H11          5.5030    -2.2310    -2.9090 hc         1 86X       0.053200
     35 H12          3.6630    -2.0350    -1.3790 hn         1 86X       0.357800
     36 H14          1.8910     0.8850     0.5110 hc         1 86X       0.063200
     37 H15          1.8910    -0.8840     0.5110 hc         1 86X       0.063200
     38 H16         -1.4200     3.2410     3.6560 ha         1 86X       0.173000
     39 H17         -2.0330    -1.2140     5.7430 ha         1 86X       0.171000
     40 H18         -0.5350    -2.0980     1.4690 h5         1 86X       0.060800
@<TRIPOS>BOND
     1    19    18 1
     2    17    16 1
     3    18    16 ar
     4    18    20 ar
     5    16    15 ar
     6    20    21 ar
     7    15    14 ar
     8    21    14 ar
     9    21    22 1
    10    14    12 1
    11    22    23 2
    12    12    13 2
    13    12    11 1
    14    23    11 1
    15    11     1 1
    16     1    10 1
    17    10     2 1
    18     2     3 1
    19     9     3 1
    20     9     4 1
    21     3     5 1
    22     7     5 1
    23     7     8 1
    24     5     6 2
    25     8     4 1
    26     1    24 1
    27     1    25 1
    28     2    26 1
    29     2    27 1
    30     3    28 1
    31     4    29 1
    32     4    30 1
    33     7    31 1
    34     7    32 1
    35     8    33 1
    36     8    34 1
    37     9    35 1
    38    10    36 1
    39    10    37 1
    40    15    38 1
    41    20    39 1
    42    23    40 1
@<TRIPOS>SUBSTRUCTURE
     1 86X         1 TEMP              0 ****  ****    0 ROOT
