@<TRIPOS>MOLECULE
86X
   40    42     1     0     0
SMALL
bcc


@<TRIPOS>ATOM
      1 C12          0.0000     0.0000     0.0000 c3         1 86X       0.023000
      2 C14          2.0390    -0.0000    -1.4420 c3         1 86X      -0.011400
      3 C15          3.5700    -0.0010    -1.4430 c3         1 86X       0.027500
      4 C17          5.5270    -1.3440    -0.9520 c3         1 86X       0.139800
      5 C20          4.0780     0.1230    -2.8620 c          1 86X       0.571100
      6 O21          3.3270     0.3840    -3.7720 o          1 86X      -0.536100
      7 C19          5.5560    -0.0890    -3.1100 c3         1 86X      -0.119400
      8 C18          5.9740    -1.3900    -2.4150 c3         1 86X      -0.053400
      9 N16          4.0640    -1.2670    -0.8780 n7         1 86X      -0.574200
     10 C13          1.5300     0.0000     0.0000 c3         1 86X      -0.050400
     11 N11         -0.4880     0.0000     1.3820 n          1 86X       0.019700
     12 C22         -0.7110     1.1760     2.0140 c          1 86X       0.631100
     13 O23         -0.5150     2.2400     1.4560 o          1 86X      -0.658500
     14 C06         -1.2010     1.1180     3.3980 ca         1 86X      -0.224600
     15 C05         -1.4620     2.2710     4.1350 ca         1 86X       0.011000
     16 C03         -1.9200     2.1600     5.4300 ca         1 86X      -0.108600
     17 Cl4         -2.2470     3.5940     6.3540 cl         1 86X       0.013600
     18 C02         -2.1240     0.9080     6.0030 ca         1 86X       0.147900
     19 F01         -2.5750     0.8200     7.2740 f          1 86X      -0.118900
     20 C08         -1.8710    -0.2440     5.2880 ca         1 86X      -0.124000
     21 C07         -1.4060    -0.1550     3.9770 ca         1 86X       0.178400
     22 N09         -1.1450    -1.2640     3.2370 nc         1 86X      -0.548100
     23 C10         -0.7180    -1.1800     2.0140 cd         1 86X       0.356800
     24 H1          -0.3610    -0.8850    -0.5110 h1         1 86X       0.043700
     25 H2          -0.3610     0.8850    -0.5110 h1         1 86X       0.043700
     26 H3           1.6770    -0.8840    -1.9530 hc         1 86X       0.030200
     27 H4           1.6790     0.8850    -1.9530 hc         1 86X       0.030200
     28 H5           3.9390     0.8280    -0.8520 h1         1 86X       0.059700
     29 H6           5.9560    -0.4710    -0.4740 h1         1 86X       0.028200
     30 H7           5.8650    -2.2400    -0.4450 h1         1 86X       0.028200
     31 H8           6.1180     0.7410    -2.6980 hc         1 86X       0.040700
     32 H9           5.7400    -0.1690    -4.1750 hc         1 86X       0.040700
     33 H10          7.0520    -1.4940    -2.4600 hc         1 86X       0.024200
     34 H11          5.5030    -2.2310    -2.9090 hc         1 86X       0.024200
     35 H12          3.6630    -2.0350    -1.3790 hn         1 86X       0.260800
     36 H14          1.8910     0.8850     0.5110 hc         1 86X       0.033200
     37 H15          1.8910    -0.8840     0.5110 hc         1 86X       0.033200
     38 H16         -1.4200     3.2410     3.6560 ha         1 86X       0.138000
     39 H17         -2.0330    -1.2140     5.7430 ha         1 86X       0.139000
     40 H18         -0.5350    -2.0980     1.4690 h5         1 86X       0.008800
@<TRIPOS>BOND
     1     1    10 1   
     2     1    11 1   
     3     1    24 1   
     4     1    25 1   
     5     2     3 1   
     6     2    10 1   
     7     2    26 1   
     8     2    27 1   
     9     3     5 1   
    10     3     9 1   
    11     3    28 1   
    12     4     8 1   
    13     4     9 1   
    14     4    29 1   
    15     4    30 1   
    16     5     6 2   
    17     5     7 1   
    18     7     8 1   
    19     7    31 1   
    20     7    32 1   
    21     8    33 1   
    22     8    34 1   
    23     9    35 1   
    24    10    36 1   
    25    10    37 1   
    26    11    12 1   
    27    11    23 1   
    28    12    13 2   
    29    12    14 1   
    30    14    15 ar  
    31    14    21 ar  
    32    15    16 ar  
    33    15    38 1   
    34    16    17 1   
    35    16    18 ar  
    36    18    19 1   
    37    18    20 ar  
    38    20    21 ar  
    39    20    39 1   
    40    21    22 1   
    41    22    23 2   
    42    23    40 1   
@<TRIPOS>SUBSTRUCTURE
     1 86X         1 TEMP              0 ****  ****    0 ROOT
