@<TRIPOS>MOLECULE
86Y
   65    69     1     0     0
SMALL
bcc


@<TRIPOS>ATOM
      1 CBD          0.0000     0.0000     0.0000 c3         1 86Y       0.154800
      2 CBE          1.5490     0.0000     0.0000 c3         1 86Y      -0.058700
      3 CBH          2.0970    -1.2610    -0.6730 c3         1 86Y       0.013900
      4 CBF          1.8620     0.0000     1.5190 c3         1 86Y      -0.043400
      5 CBG          0.7350     0.8770     2.1070 c3         1 86Y       0.144800
      6 NBC         -0.3780     0.8620     1.1400 n3         1 86Y      -0.535600
      7 CBB         -1.6170     0.3870     1.7720 c3         1 86Y       0.148800
      8 CBA         -2.1100     1.4310     2.7750 c3         1 86Y       0.197400
      9 OAZ         -2.4740     2.6260     2.0820 os         1 86Y      -0.285900
     10 CAW         -2.9350     3.6600     2.8330 ca         1 86Y       0.157100
     11 CAX         -3.0310     3.5290     4.2100 ca         1 86Y      -0.177000
     12 CAY         -3.5010     4.5820     4.9720 ca         1 86Y      -0.057500
     13 CAV         -3.3060     4.8500     2.2230 ca         1 86Y      -0.177000
     14 CAU         -3.7760     5.8990     2.9900 ca         1 86Y      -0.057500
     15 CAT         -3.8760     5.7640     4.3620 ca         1 86Y      -0.177300
     16 CAH         -4.3890     6.9110     5.1950 c3         1 86Y       0.323600
     17 OAG         -5.4780     7.5350     4.5170 os         1 86Y      -0.299900
     18 CAE         -5.1880     8.2950     3.4300 ca         1 86Y       0.181100
     19 CAD         -6.0600     8.3750     2.3610 ca         1 86Y      -0.181000
     20 CAC         -5.7450     9.1760     1.2720 ca         1 86Y       0.159100
     21 OAL         -6.6030     9.2540     0.2210 oh         1 86Y      -0.500100
     22 CAB         -4.5580     9.8990     1.2480 ca         1 86Y      -0.176000
     23 CAA         -3.6760     9.8200     2.3060 ca         1 86Y      -0.038000
     24 CAF         -3.9810     9.0130     3.4000 ca         1 86Y      -0.147800
     25 CAJ         -3.0680     8.8970     4.5500 ce         1 86Y      -0.020400
     26 CAK         -1.9370     9.8750     4.7420 c3         1 86Y       0.046100
     27 CAI         -3.2720     7.8950     5.4270 cf         1 86Y      -0.132400
     28 CAM         -2.4040     7.7610     6.6090 ca         1 86Y      -0.051800
     29 CAN         -1.5690     6.6480     6.7450 ca         1 86Y      -0.078000
     30 CAO         -0.7590     6.5270     7.8540 ca         1 86Y      -0.139500
     31 CAP         -0.7730     7.5090     8.8360 ca         1 86Y       0.123100
     32 OAS          0.0270     7.3850     9.9270 oh         1 86Y      -0.501100
     33 CAQ         -1.6000     8.6160     8.7060 ca         1 86Y      -0.139500
     34 CAR         -2.4100     8.7490     7.5980 ca         1 86Y      -0.078000
     35 H1          -0.3750     0.4170    -0.9270 h1         1 86Y       0.015700
     36 H2          -0.3760    -1.0050     0.1480 h1         1 86Y       0.015700
     37 H3           1.9330     0.8970    -0.4710 hc         1 86Y       0.041700
     38 H4           3.1790    -1.2550    -0.6230 hc         1 86Y       0.003367
     39 H5           1.7830    -1.2820    -1.7090 hc         1 86Y       0.003367
     40 H6           1.7160    -2.1370    -0.1620 hc         1 86Y       0.003367
     41 H7           1.8100    -1.0050     1.9190 hc         1 86Y       0.020700
     42 H8           2.8310     0.4460     1.7090 hc         1 86Y       0.020700
     43 H9           0.4060     0.4670     3.0540 h1         1 86Y       0.017200
     44 H10          1.0920     1.8910     2.2410 h1         1 86Y       0.017200
     45 H12         -2.3730     0.2320     1.0120 h1         1 86Y       0.018200
     46 H13         -1.4250    -0.5460     2.2870 h1         1 86Y       0.018200
     47 H14         -2.9720     1.0440     3.3040 h1         1 86Y       0.003700
     48 H15         -1.3200     1.6510     3.4840 h1         1 86Y       0.003700
     49 H16         -2.7380     2.6020     4.6890 ha         1 86Y       0.119500
     50 H17         -3.5780     4.4790     6.0480 ha         1 86Y       0.119000
     51 H18         -3.2280     4.9560     1.1480 ha         1 86Y       0.119500
     52 H19         -4.0680     6.8280     2.5150 ha         1 86Y       0.119000
     53 H20         -4.7350     6.5360     6.1510 h1         1 86Y       0.049700
     54 H21         -7.0260     7.8880     2.4130 ha         1 86Y       0.130000
     55 H22         -7.2010     9.9700     0.3560 ho         1 86Y       0.405000
     56 H23         -4.3220    10.5210     0.3930 ha         1 86Y       0.117000
     57 H24         -2.7510    10.3840     2.2870 ha         1 86Y       0.113000
     58 H25         -2.2930    10.7360     5.2940 hc         1 86Y       0.016367
     59 H26         -1.1360     9.3980     5.2950 hc         1 86Y       0.016367
     60 H27         -1.5670    10.1940     3.7750 hc         1 86Y       0.016367
     61 H28         -1.5570     5.8820     5.9790 ha         1 86Y       0.116500
     62 H29         -0.1120     5.6650     7.9600 ha         1 86Y       0.114000
     63 H30         -0.4540     6.9700    10.6240 ho         1 86Y       0.402000
     64 H31         -1.6060     9.3800     9.4740 ha         1 86Y       0.114000
     65 H32         -3.0550     9.6140     7.4980 ha         1 86Y       0.116500
@<TRIPOS>BOND
     1     1     2 1   
     2     1     6 1   
     3     1    35 1   
     4     1    36 1   
     5     2     3 1   
     6     2     4 1   
     7     2    37 1   
     8     3    38 1   
     9     3    39 1   
    10     3    40 1   
    11     4     5 1   
    12     4    41 1   
    13     4    42 1   
    14     5     6 1   
    15     5    43 1   
    16     5    44 1   
    17     6     7 1   
    18     7     8 1   
    19     7    45 1   
    20     7    46 1   
    21     8     9 1   
    22     8    47 1   
    23     8    48 1   
    24     9    10 1   
    25    10    11 ar  
    26    10    13 ar  
    27    11    12 ar  
    28    11    49 1   
    29    12    15 ar  
    30    12    50 1   
    31    13    14 ar  
    32    13    51 1   
    33    14    15 ar  
    34    14    52 1   
    35    15    16 1   
    36    16    17 1   
    37    16    27 1   
    38    16    53 1   
    39    17    18 1   
    40    18    19 ar  
    41    18    24 ar  
    42    19    20 ar  
    43    19    54 1   
    44    20    21 1   
    45    20    22 ar  
    46    21    55 1   
    47    22    23 ar  
    48    22    56 1   
    49    23    24 ar  
    50    23    57 1   
    51    24    25 1   
    52    25    26 1   
    53    25    27 2   
    54    26    58 1   
    55    26    59 1   
    56    26    60 1   
    57    27    28 1   
    58    28    29 ar  
    59    28    34 ar  
    60    29    30 ar  
    61    29    61 1   
    62    30    31 ar  
    63    30    62 1   
    64    31    32 1   
    65    31    33 ar  
    66    32    63 1   
    67    33    34 ar  
    68    33    64 1   
    69    34    65 1   
@<TRIPOS>SUBSTRUCTURE
     1 86Y         1 TEMP              0 ****  ****    0 ROOT
