@<TRIPOS>MOLECULE
molecule
   65    69     1     0     0
SMALL
bcc


@<TRIPOS>ATOM
      1 CBD          0.0000     0.0000     0.0000 c3         1 86Y       0.155800
      2 CBE          1.5490     0.0000     0.0000 c3         1 86Y      -0.083700
      3 CBH          2.0970    -1.2610    -0.6730 c3         1 86Y      -0.084100
      4 CBF          1.8620     0.0000     1.5190 c3         1 86Y      -0.102400
      5 CBG          0.7350     0.8770     2.1070 c3         1 86Y       0.147800
      6 NBC         -0.3780     0.8620     1.1400 n3         1 86Y      -0.705600
      7 CBB         -1.6170     0.3870     1.7720 c3         1 86Y       0.157800
      8 CBA         -2.1100     1.4310     2.7750 c3         1 86Y       0.141400
      9 OAZ         -2.4740     2.6260     2.0820 os         1 86Y      -0.308900
     10 CAW         -2.9350     3.6600     2.8330 ca         1 86Y       0.151100
     11 CAX         -3.0310     3.5290     4.2100 ca         1 86Y      -0.192000
     12 CAY         -3.5010     4.5820     4.9720 ca         1 86Y      -0.080500
     13 CAV         -3.3060     4.8500     2.2230 ca         1 86Y      -0.192000
     14 CAU         -3.7760     5.8990     2.9900 ca         1 86Y      -0.080500
     15 CAT         -3.8760     5.7640     4.3620 ca         1 86Y      -0.162300
     16 CAH         -4.3890     6.9110     5.1950 c3         1 86Y       0.262600
     17 OAG         -5.4780     7.5350     4.5170 os         1 86Y      -0.314900
     18 CAE         -5.1880     8.2950     3.4300 ca         1 86Y       0.160100
     19 CAD         -6.0600     8.3750     2.3610 ca         1 86Y      -0.184000
     20 CAC         -5.7450     9.1760     1.2720 ca         1 86Y       0.137100
     21 OAL         -6.6030     9.2540     0.2210 oh         1 86Y      -0.519100
     22 CAB         -4.5580     9.8990     1.2480 ca         1 86Y      -0.186000
     23 CAA         -3.6760     9.8200     2.3060 ca         1 86Y      -0.072000
     24 CAF         -3.9810     9.0130     3.4000 ca         1 86Y      -0.137800
     25 CAJ         -3.0680     8.8970     4.5500 ce         1 86Y      -0.024400
     26 CAK         -1.9370     9.8750     4.7420 c3         1 86Y      -0.050900
     27 CAI         -3.2720     7.8950     5.4270 cf         1 86Y      -0.119400
     28 CAM         -2.4040     7.7610     6.6090 ca         1 86Y      -0.056800
     29 CAN         -1.5690     6.6480     6.7450 ca         1 86Y      -0.104000
     30 CAO         -0.7590     6.5270     7.8540 ca         1 86Y      -0.156000
     31 CAP         -0.7730     7.5090     8.8360 ca         1 86Y       0.106100
     32 OAS          0.0270     7.3850     9.9270 oh         1 86Y      -0.523100
     33 CAQ         -1.6000     8.6160     8.7060 ca         1 86Y      -0.156000
     34 CAR         -2.4100     8.7490     7.5980 ca         1 86Y      -0.104000
     35 H1          -0.3750     0.4170    -0.9270 h1         1 86Y       0.044200
     36 H2          -0.3760    -1.0050     0.1480 h1         1 86Y       0.044200
     37 H3           1.9330     0.8970    -0.4710 hc         1 86Y       0.068700
     38 H4           3.1790    -1.2550    -0.6230 hc         1 86Y       0.036033
     39 H5           1.7830    -1.2820    -1.7090 hc         1 86Y       0.036033
     40 H6           1.7160    -2.1370    -0.1620 hc         1 86Y       0.036033
     41 H7           1.8100    -1.0050     1.9190 hc         1 86Y       0.048200
     42 H8           2.8310     0.4460     1.7090 hc         1 86Y       0.048200
     43 H9           0.4060     0.4670     3.0540 h1         1 86Y       0.045200
     44 H10          1.0920     1.8910     2.2410 h1         1 86Y       0.045200
     45 H12         -2.3730     0.2320     1.0120 h1         1 86Y       0.047200
     46 H13         -1.4250    -0.5460     2.2870 h1         1 86Y       0.047200
     47 H14         -2.9720     1.0440     3.3040 h1         1 86Y       0.035200
     48 H15         -1.3200     1.6510     3.4840 h1         1 86Y       0.035200
     49 H16         -2.7380     2.6020     4.6890 ha         1 86Y       0.141500
     50 H17         -3.5780     4.4790     6.0480 ha         1 86Y       0.140500
     51 H18         -3.2280     4.9560     1.1480 ha         1 86Y       0.141500
     52 H19         -4.0680     6.8280     2.5150 ha         1 86Y       0.140500
     53 H20         -4.7350     6.5360     6.1510 h1         1 86Y       0.096700
     54 H21         -7.0260     7.8880     2.4130 ha         1 86Y       0.157000
     55 H22         -7.2010     9.9700     0.3560 ho         1 86Y       0.422000
     56 H23         -4.3220    10.5210     0.3930 ha         1 86Y       0.143000
     57 H24         -2.7510    10.3840     2.2870 ha         1 86Y       0.141000
     58 H25         -2.2930    10.7360     5.2940 hc         1 86Y       0.049700
     59 H26         -1.1360     9.3980     5.2950 hc         1 86Y       0.049700
     60 H27         -1.5670    10.1940     3.7750 hc         1 86Y       0.049700
     61 H28         -1.5570     5.8820     5.9790 ha         1 86Y       0.144000
     62 H29         -0.1120     5.6650     7.9600 ha         1 86Y       0.141000
     63 H30         -0.4540     6.9700    10.6240 ho         1 86Y       0.419000
     64 H31         -1.6060     9.3800     9.4740 ha         1 86Y       0.141000
     65 H32         -3.0550     9.6140     7.4980 ha         1 86Y       0.144000
@<TRIPOS>BOND
     1     3     2 1
     2     2     4 1
     3     2     1 1
     4     4     5 1
     5     1     6 1
     6     5     6 1
     7     6     7 1
     8     7     8 1
     9     8     9 1
    10     9    10 1
    11    10    13 ar
    12    10    11 ar
    13    13    14 ar
    14    11    12 ar
    15    14    15 ar
    16    12    15 ar
    17    15    16 1
    18    21    20 1
    19    20    22 ar
    20    20    19 ar
    21    22    23 ar
    22    30    29 ar
    23    30    31 ar
    24    29    28 ar
    25    19    18 ar
    26    23    24 ar
    27    24    18 ar
    28    24    25 1
    29    18    17 1
    30    16    17 1
    31    16    27 1
    32    31    32 1
    33    31    33 ar
    34    28    27 1
    35    28    34 ar
    36    25    27 2
    37    25    26 1
    38    33    34 ar
    39     1    35 1
    40     1    36 1
    41     2    37 1
    42     3    38 1
    43     3    39 1
    44     3    40 1
    45     4    41 1
    46     4    42 1
    47     5    43 1
    48     5    44 1
    49     7    45 1
    50     7    46 1
    51     8    47 1
    52     8    48 1
    53    11    49 1
    54    12    50 1
    55    13    51 1
    56    14    52 1
    57    16    53 1
    58    19    54 1
    59    21    55 1
    60    22    56 1
    61    23    57 1
    62    26    58 1
    63    26    59 1
    64    26    60 1
    65    29    61 1
    66    30    62 1
    67    32    63 1
    68    33    64 1
    69    34    65 1
@<TRIPOS>SUBSTRUCTURE
     1 86Y         1 TEMP              0 ****  ****    0 ROOT
