@<TRIPOS>MOLECULE
870
   45    44     1     0     0
SMALL
bcc


@<TRIPOS>ATOM
      1 C           0.8810   -0.8770    0.6450 c3        1 870     -0.016000
      2 C1          1.8980   -1.6930    1.2390 c1        1 870     -0.171000
      3 C2          2.7260   -2.4030    1.7460 c1        1 870     -0.122000
      4 C3          1.3330   -1.1390    3.4760 c1        1 870      0.033000
      5 C4          0.1470   -0.5030    3.0060 c2        1 870     -0.832000
      6 C5         -0.1030   -0.4210    1.6760 c2        1 870     -0.016000
      7 S          -0.9520   -0.1170    4.2590 s6        1 870      2.868000
      8 O1         -2.1230   -0.8720    4.1340 o         1 870     -0.891000
      9 O2         -0.2800   -0.1650    5.4790 o         1 870     -0.891000
     10 N          -1.3730    1.4420    3.8930 nh        1 870     -0.773000
     11 C6         -0.5230    2.5270    3.9250 c2        1 870      0.162000
     12 N1          0.8210    2.5900    4.0690 n2        1 870     -0.176000
     13 C7          1.1280    3.9520    4.0370 c2        1 870     -0.128000
     14 C8          4.3930    6.7120    3.9030 c1        1 870     -0.317000
     15 C9          4.4460    7.9900    3.6180 c2        1 870      0.059000
     16 C10         0.6940    6.9900    3.5420 c1        1 870      0.260000
     17 C11        -0.3030    6.1110    3.7400 c2        1 870     -0.176000
     18 C12        -0.0320    4.7000    3.8600 c2        1 870     -0.033000
     19 O3         -1.1170    3.8070    3.7850 os        1 870     -0.108000
     20 CL2         3.8320   -3.3450    2.3930 cl        1 870      0.203000
     21 CL1        -1.5740    0.1480    1.0520 cl        1 870      0.006000
     22 O4          3.3750    8.7920    3.3210 oh        1 870     -0.266000
     23 C13         4.3940    5.4500    4.1940 c2        1 870     -0.127000
     24 C14        -5.6240    9.3920    3.7210 c2        1 870     -0.123000
     25 C15        -4.3420    8.7350    3.6700 c2        1 870     -0.190000
     26 C19        -4.0970    7.4350    4.0140 c2        1 870      0.108000
     27 C16        -2.7610    6.9550    3.9200 c1        1 870     -0.075000
     28 C17        -1.6310    6.5680    3.8350 c1        1 870     -0.103000
     29 C18        -5.7900   10.6800    3.3980 c2        1 870     -0.211000
     30 H           1.3440    0.0290    0.1540 hc        1 870      0.134500
     31 H1          0.3530   -1.4640   -0.1610 hc        1 870      0.134500
     32 H3          2.2550   -0.5660    3.6290 ha        1 870      0.109000
     33 HN         -2.3040    1.6730    3.6120 hn        1 870      0.278000
     34 H8          2.1630    4.2930    4.1450 h4        1 870      0.202000
     35 H10         5.3780    8.5810    3.5810 h4        1 870      0.173000
     36 H131        2.5560    8.2680    3.3640 ho        1 870      0.235000
     37 H132        4.3070    5.0810    5.2280 ha        1 870      0.119500
     38 H133        4.4990    4.6680    3.4260 ha        1 870      0.119500
     39 H14        -6.7730   11.1670    3.4390 ha        1 870      0.114000
     40 H15        -6.4970    8.7930    4.0310 ha        1 870      0.115000
     41 H16        -3.4950    9.3470    3.3160 ha        1 870      0.138000
     42 H18        -4.9630   11.3240    3.0740 ha        1 870      0.114000
     43 HN21       -5.8960    6.9110    4.7740 hn        1 870      0.187500
     44 HN22       -4.7300    5.7380    4.9210 hn        1 870      0.187500
     45 N2         -5.0770    6.5010    4.3820 n3        1 870     -0.316000
@<TRIPOS>BOND
     1    1    2 1
     2    1    6 1
     3    1   30 1
     4    1   31 1
     5    2    3 1
     6    3   20 1
     7    4    5 1
     8    4   32 1
     9    5    6 1
    10    5    7 1
    11    6   21 1
    12    7    8 1
    13    7    9 1
    14    7   10 1
    15   10   11 1
    16   10   33 1
    17   11   12 1
    18   11   19 1
    19   12   13 1
    20   13   18 1
    21   13   34 1
    22   14   15 1
    23   14   23 1
    24   15   22 1
    25   15   35 1
    26   16   17 1
    27   17   18 1
    28   17   28 1
    29   18   19 1
    30   22   36 1
    31   23   37 1
    32   23   38 1
    33   24   25 1
    34   24   29 1
    35   24   40 1
    36   25   26 1
    37   25   41 1
    38   26   27 1
    39   26   45 1
    40   27   28 1
    41   29   39 1
    42   29   42 1
    43   43   45 1
    44   44   45 1
@<TRIPOS>SUBSTRUCTURE
     1 870         1 TEMP              0 ****  ****    0 ROOT
