@<TRIPOS>MOLECULE
871
   44    46     1     0     0
SMALL
bcc


@<TRIPOS>ATOM
      1 C23          0.0000     0.0000     0.0000 ca         1 871      -0.125300
      2 C17          1.8680    -0.0020    -1.4270 c3         1 871       0.104800
      3 C20          1.3820     0.0020     2.3960 ca         1 871      -0.103500
      4 C12         -4.3440     0.6100    -7.5490 c1         1 871       0.195700
      5 C11         -4.2820    -0.4380    -6.5170 c3         1 871       0.160000
      6 C18          1.3800     0.0000     0.0000 ca         1 871      -0.125300
      7 C19          2.0720     0.0000     1.1980 ca         1 871      -0.065000
      8 C21         -0.0010     0.0030     2.3960 ca         1 871      -0.103500
      9 N13         -4.3940     1.4040    -8.3600 n1         1 871      -0.377800
     10 C01         -4.4350     1.0740    -2.8560 c3         1 871      -0.031100
     11 C03         -3.6870     2.8760    -4.4160 c3         1 871      -0.031100
     12 C04         -2.8690     0.5530    -4.7050 ca         1 871      -0.085300
     13 C05         -1.6820     0.6620    -4.0130 ca         1 871      -0.090000
     14 C06         -0.5840    -0.1180    -4.3860 ca         1 871      -0.145600
     15 C07         -0.6990    -1.0060    -5.4650 ca         1 871       0.168100
     16 O08          0.3600    -1.7680    -5.8350 oh         1 871      -0.461100
     17 C09         -1.9010    -1.1010    -6.1500 ca         1 871      -0.135000
     18 C10         -2.9790    -0.3290    -5.7680 ca         1 871      -0.066300
     19 O15          1.7380     0.0820    -4.2570 o          1 871      -0.614100
     20 N16          0.6890    -0.0050    -2.3010 n          1 871      -0.134800
     21 C22         -0.6910     0.0020     1.2000 ca         1 871      -0.065000
     22 C24         -0.4880    -0.0060    -1.4270 c3         1 871       0.104800
     23 H1           2.5290     0.8480    -1.5460 h1         1 871       0.029950
     24 H2           2.5850    -0.7870    -1.2220 h1         1 871       0.029950
     25 H3           1.9020     0.3160     3.2930 ha         1 871       0.109000
     26 H4          -5.1990    -0.2960    -5.9580 hc         1 871       0.032200
     27 H5          -4.3930    -1.4810    -6.7850 hc         1 871       0.032200
     28 H6           3.1530     0.0260     1.2620 ha         1 871       0.106500
     29 H7          -0.2900     0.1940     3.4230 ha         1 871       0.109000
     30 H8          -5.3780     1.5720    -2.6650 hc         1 871       0.013367
     31 H9          -5.0980     0.2180    -2.8950 hc         1 871       0.013367
     32 H10         -3.7190     1.3330    -2.0860 hc         1 871       0.013367
     33 H11         -4.9400     1.4230    -4.9210 hc         1 871       0.040700
     34 H12         -2.7490     3.0850    -3.9160 hc         1 871       0.013367
     35 H13         -3.1920     2.9030    -5.3800 hc         1 871       0.013367
     36 H14         -4.4720     3.6010    -4.5950 hc         1 871       0.013367
     37 H15         -1.7190     1.6340    -3.5360 ha         1 871       0.139000
     38 H16          0.1600    -2.6440    -5.5500 ho         1 871       0.396000
     39 H17         -1.9710    -1.8790    -6.9010 ha         1 871       0.119000
     40 H18         -1.7340    -0.0950     0.9240 ha         1 871       0.106500
     41 H19         -0.8850    -0.9540    -1.7700 h1         1 871       0.029950
     42 H20         -1.1770     0.7910    -1.6790 h1         1 871       0.029950
     43 C14          0.6890    -0.0070    -3.6480 c          1 871       0.624700
     44 C02         -4.0520     1.3950    -4.3020 c3         1 871       0.010600
@<TRIPOS>BOND
     1     1     6 ar  
     2     1    21 ar  
     3     1    22 1   
     4     2     6 1   
     5     2    20 1   
     6     2    23 1   
     7     2    24 1   
     8     3     7 ar  
     9     3     8 ar  
    10     3    25 1   
    11     4     5 1   
    12     4     9 3   
    13     5    18 1   
    14     5    26 1   
    15     5    27 1   
    16     6     7 ar  
    17     7    28 1   
    18     8    21 ar  
    19     8    29 1   
    20    10    30 1   
    21    10    31 1   
    22    10    32 1   
    23    10    44 1   
    24    11    34 1   
    25    11    35 1   
    26    11    36 1   
    27    11    44 1   
    28    12    13 ar  
    29    12    18 ar  
    30    12    44 1   
    31    13    14 ar  
    32    13    37 1   
    33    14    15 ar  
    34    14    43 1   
    35    15    16 1   
    36    15    17 ar  
    37    16    38 1   
    38    17    18 ar  
    39    17    39 1   
    40    19    43 2   
    41    20    22 1   
    42    20    43 1   
    43    21    40 1   
    44    22    41 1   
    45    22    42 1   
    46    33    44 1   
@<TRIPOS>SUBSTRUCTURE
     1 871         1 TEMP              0 ****  ****    0 ROOT
