@<TRIPOS>MOLECULE
molecule
   48    49     1     0     0
SMALL
bcc


@<TRIPOS>ATOM
      1 C1           0.0000     0.0000     0.0000 ca         1 872      -0.177000
      2 C2           1.3940     0.0000     0.0000 ca         1 872       0.158900
      3 C3           2.0740     0.0000     1.2080 ca         1 872      -0.151300
      4 C4           1.3960     0.0010     2.4160 ca         1 872      -0.120000
      5 C5           0.0000     0.0010     2.4170 ca         1 872       0.102900
      6 C6          -0.6980     0.0000     1.2090 ca         1 872       0.154900
      7 F9          -0.6680     0.0010     3.5770 f          1 872      -0.098900
      8 F10          2.0560    -0.0000    -1.1660 f          1 872      -0.121900
      9 C11          3.5840     0.0000     1.2110 c3         1 872      -0.048100
     10 C12          4.2260     1.2170     1.9140 c3         1 872       0.129500
     11 C15          3.9140     2.5480     1.2310 c3         1 872      -0.190400
     12 C16          4.6310     3.6970     1.8970 c          1 872       0.657100
     13 N19          4.9640     4.7880     1.0810 n          1 872      -0.493800
     14 N20          5.6840     1.0480     1.8920 nz         1 872      -0.814600
     15 O22          4.8800     3.6210     3.1020 o          1 872      -0.583100
     16 C25          4.1770     5.1800    -0.0950 c3         1 872       0.107000
     17 C26          3.1380     6.2450     0.2610 c3         1 872      -0.135400
     18 C27          3.7620     7.5370     0.7840 c3         1 872       0.113000
     19 N28          4.2870     7.4210     2.1380 ns         1 872      -0.586900
     20 C29          5.3670     6.6630     2.5490 c          1 872       0.694500
     21 C30          5.9950     5.7570     1.4950 c3         1 872       0.037700
     22 C37          7.3140     5.1270     1.9400 c3         1 872      -0.150400
     23 O39          5.8110     6.7350     3.6950 o          1 872      -0.592500
     24 F41         -2.0370     0.0010     1.2090 f          1 872      -0.091900
     25 C42          7.9040     4.2780     0.8530 c3         1 872       0.657900
     26 F45          7.0760     3.2760     0.4870 f          1 872      -0.240633
     27 F46          9.0520     3.7180     1.2950 f          1 872      -0.240633
     28 F47          8.2000     5.0010    -0.2490 f          1 872      -0.240633
     29 H1          -0.5420    -0.0000    -0.9380 ha         1 872       0.186000
     30 H4           1.9430     0.0010     3.3500 ha         1 872       0.158000
     31 H111         3.9250    -0.9010     1.7060 hc         1 872       0.075200
     32 H112         3.9270    -0.0210     0.1830 hc         1 872       0.075200
     33 H12          3.8860     1.2550     2.9420 hx         1 872       0.131700
     34 H151         2.8470     2.7250     1.2730 hc         1 872       0.105700
     35 H152         4.2230     2.4930     0.1940 hc         1 872       0.105700
     36 H201         5.9180     0.1220     2.1900 hn         1 872       0.460467
     37 H202         6.0230     1.1950     0.9620 hn         1 872       0.460467
     38 H251         3.6690     4.3070    -0.4870 h1         1 872       0.063200
     39 H252         4.8450     5.5760    -0.8500 h1         1 872       0.063200
     40 H261         2.4780     5.8450     1.0210 hc         1 872       0.069200
     41 H262         2.5580     6.4740    -0.6260 hc         1 872       0.069200
     42 H271         4.5710     7.8220     0.1230 h1         1 872       0.061700
     43 H272         3.0070     8.3140     0.7720 h1         1 872       0.061700
     44 HN28         3.8150     7.9480     2.8470 hn         1 872       0.334500
     45 H30          6.2110     6.3770     0.6330 h1         1 872       0.092700
     46 H371         8.0140     5.9120     2.1970 hc         1 872       0.116200
     47 H372         7.1360     4.5110     2.8130 hc         1 872       0.116200
     48 H203         6.1050     1.6960     2.5290 hn         1 872       0.460467
@<TRIPOS>BOND
     1     1     2 ar
     2     1     6 ar
     3     1    29 1
     4     2     8 1
     5     2     3 ar
     6     3     9 1
     7     3     4 ar
     8     4     5 ar
     9     4    30 1
    10     5     6 ar
    11     5     7 1
    12     6    24 1
    13     9    10 1
    14     9    31 1
    15     9    32 1
    16    10    11 1
    17    10    14 1
    18    10    33 1
    19    11    12 1
    20    11    34 1
    21    11    35 1
    22    12    13 1
    23    12    15 2
    24    13    16 1
    25    13    21 1
    26    14    36 1
    27    14    37 1
    28    16    17 1
    29    16    38 1
    30    16    39 1
    31    17    18 1
    32    17    40 1
    33    17    41 1
    34    18    19 1
    35    18    42 1
    36    18    43 1
    37    19    20 1
    38    19    44 1
    39    20    21 1
    40    20    23 2
    41    21    22 1
    42    21    45 1
    43    22    25 1
    44    22    46 1
    45    22    47 1
    46    25    28 1
    47    25    26 1
    48    25    27 1
    49    48    14 1
@<TRIPOS>SUBSTRUCTURE
     1 872         1 TEMP              0 ****  ****    0 ROOT
