@<TRIPOS>MOLECULE
molecule
   43    45     1     0     0
SMALL
bcc


@<TRIPOS>ATOM
      1 C11          0.0000     0.0000     0.0000 ca         1 873       0.189400
      2 C12          1.4130     0.0000     0.0000 ca         1 873      -0.202600
      3 C13          2.1110     0.0000     1.2060 ca         1 873      -0.054000
      4 C14          1.4140     0.0000     2.3940 ca         1 873      -0.154000
      5 C17          2.1020    -0.0010    -1.2980 c          1 873       0.704100
      6 C15          0.0240     0.0000     2.3980 ca         1 873      -0.096000
      7 C16         -0.6840     0.0070     1.2180 ca         1 873      -0.121000
      8 N10         -0.6580     0.0000    -1.1860 nc         1 873      -0.650100
      9 C09         -0.0220    -0.0010    -2.3170 cd         1 873       0.502800
     10 N08          1.3340    -0.0000    -2.4130 n          1 873      -0.386300
     11 C07          1.9680    -0.0000    -3.7330 c3         1 873       0.078000
     12 C06          2.1900    -1.4430    -4.1920 c3         1 873       0.131100
     13 O19          3.0350    -2.1170    -3.2570 oh         1 873      -0.588800
     14 C05          2.8530    -1.4430    -5.5710 c3         1 873      -0.085400
     15 C04          2.9610    -2.8800    -6.0850 c3         1 873       0.168500
     16 N03          1.6150    -3.4250    -6.3000 n7         1 873      -0.816200
     17 C02          1.6730    -4.8200    -6.7550 c3         1 873       0.156800
     18 C20          3.7350    -2.8920    -7.4050 c3         1 873       0.108100
     19 O22          3.0560    -2.0790    -8.3640 oh         1 873      -0.612800
     20 C21          3.8230    -4.3300    -7.9260 c3         1 873      -0.098400
     21 C01          2.4090    -4.8910    -8.0950 c3         1 873      -0.117400
     22 H1           3.1940    -0.0000     1.2080 ha         1 873       0.154000
     23 H2           1.9530    -0.0050     3.3330 ha         1 873       0.135000
     24 H3          -0.5080     0.0000     3.3410 ha         1 873       0.133000
     25 H4          -1.7680     0.0070     1.2340 ha         1 873       0.149000
     26 H5          -0.6020    -0.0000    -3.2320 h5         1 873       0.053800
     27 H6           2.9210     0.5110    -3.6750 h1         1 873       0.074700
     28 H7           1.3270     0.5100    -4.4410 h1         1 873       0.074700
     29 H8           1.2360    -1.9540    -4.2500 h1         1 873       0.054700
     30 H9           2.5950    -2.8850    -2.9320 ho         1 873       0.405000
     31 H10          2.2560    -0.8570    -6.2590 hc         1 873       0.058200
     32 H11          3.8440    -1.0120    -5.4950 hc         1 873       0.058200
     33 H12          3.4820    -3.4900    -5.3580 h1         1 873       0.080700
     34 H13          1.1360    -2.8710    -6.9830 hn         1 873       0.366800
     35 H15          0.6660    -5.2000    -6.8770 h1         1 873       0.053200
     36 H16          2.2030    -5.4150    -6.0220 h1         1 873       0.053200
     37 H17          4.7340    -2.5080    -7.2390 h1         1 873       0.038700
     38 H18          3.6880    -1.6000    -8.8740 ho         1 873       0.405000
     39 H19          4.3700    -4.9390    -7.2160 hc         1 873       0.047700
     40 H20          4.3310    -4.3370    -8.8830 hc         1 873       0.047700
     41 H21          1.8740    -4.3030    -8.8320 hc         1 873       0.051200
     42 H22          2.4670    -5.9230    -8.4200 hc         1 873       0.051200
     43 O18          3.3170    -0.0010    -1.3690 o          1 873      -0.602500
@<TRIPOS>BOND
     1    17    21 1
     2    17    16 1
     3    21    20 1
     4    16    15 1
     5    20    18 1
     6    13    12 1
     7    15    18 1
     8    15    14 1
     9    18    19 1
    10     4     3 ar
    11     4     6 ar
    12     3     2 ar
    13     6     7 ar
    14    12    14 1
    15    12    11 1
    16     2     5 1
    17     2     1 ar
    18     7     1 ar
    19    43     5 2
    20     5    10 1
    21     1     8 1
    22    10     9 1
    23    10    11 1
    24     8     9 2
    25     3    22 1
    26     4    23 1
    27     6    24 1
    28     7    25 1
    29     9    26 1
    30    11    27 1
    31    11    28 1
    32    12    29 1
    33    13    30 1
    34    14    31 1
    35    14    32 1
    36    15    33 1
    37    16    34 1
    38    17    35 1
    39    17    36 1
    40    18    37 1
    41    19    38 1
    42    20    39 1
    43    20    40 1
    44    21    41 1
    45    21    42 1
@<TRIPOS>SUBSTRUCTURE
     1 873         1 TEMP              0 ****  ****    0 ROOT
