@<TRIPOS>MOLECULE
873
   43    45     1     0     0
SMALL
bcc


@<TRIPOS>ATOM
      1 C11          0.0000     0.0000     0.0000 ca         1 873       0.148400
      2 C12          1.4130     0.0000     0.0000 ca         1 873      -0.212600
      3 C13          2.1110     0.0000     1.2060 ca         1 873      -0.018000
      4 C14          1.4140     0.0000     2.3940 ca         1 873      -0.129000
      5 C17          2.1020    -0.0010    -1.2980 c          1 873       0.625100
      6 C15          0.0240     0.0000     2.3980 ca         1 873      -0.067000
      7 C16         -0.6840     0.0070     1.2180 ca         1 873      -0.096000
      8 N10         -0.6580     0.0000    -1.1860 nc         1 873      -0.545100
      9 C09         -0.0220    -0.0010    -2.3170 cd         1 873       0.337800
     10 N08          1.3340    -0.0000    -2.4130 n          1 873       0.017700
     11 C07          1.9680    -0.0000    -3.7330 c3         1 873       0.005000
     12 C06          2.1900    -1.4430    -4.1920 c3         1 873       0.170100
     13 O19          3.0350    -2.1170    -3.2570 oh         1 873      -0.568800
     14 C05          2.8530    -1.4430    -5.5710 c3         1 873      -0.039400
     15 C04          2.9610    -2.8800    -6.0850 c3         1 873       0.112500
     16 N03          1.6150    -3.4250    -6.3000 n7         1 873      -0.594200
     17 C02          1.6730    -4.8200    -6.7550 c3         1 873       0.149800
     18 C20          3.7350    -2.8920    -7.4050 c3         1 873       0.158100
     19 O22          3.0560    -2.0790    -8.3640 oh         1 873      -0.590800
     20 C21          3.8230    -4.3300    -7.9260 c3         1 873      -0.047400
     21 C01          2.4090    -4.8910    -8.0950 c3         1 873      -0.059400
     22 H1           3.1940    -0.0000     1.2080 ha         1 873       0.124000
     23 H2           1.9530    -0.0050     3.3330 ha         1 873       0.107000
     24 H3          -0.5080     0.0000     3.3410 ha         1 873       0.102000
     25 H4          -1.7680     0.0070     1.2340 ha         1 873       0.119000
     26 H5          -0.6020    -0.0000    -3.2320 h5         1 873       0.004800
     27 H6           2.9210     0.5110    -3.6750 h1         1 873       0.048200
     28 H7           1.3270     0.5100    -4.4410 h1         1 873       0.048200
     29 H8           1.2360    -1.9540    -4.2500 h1         1 873       0.020700
     30 H9           2.5950    -2.8850    -2.9320 ho         1 873       0.391000
     31 H10          2.2560    -0.8570    -6.2590 hc         1 873       0.031200
     32 H11          3.8440    -1.0120    -5.4950 hc         1 873       0.031200
     33 H12          3.4820    -3.4900    -5.3580 h1         1 873       0.052700
     34 H13          1.1360    -2.8710    -6.9830 hn         1 873       0.271800
     35 H15          0.6660    -5.2000    -6.8770 h1         1 873       0.020700
     36 H16          2.2030    -5.4150    -6.0220 h1         1 873       0.020700
     37 H17          4.7340    -2.5080    -7.2390 h1         1 873       0.008700
     38 H18          3.6880    -1.6000    -8.8740 ho         1 873       0.394000
     39 H19          4.3700    -4.9390    -7.2160 hc         1 873       0.020700
     40 H20          4.3310    -4.3370    -8.8830 hc         1 873       0.020700
     41 H21          1.8740    -4.3030    -8.8320 hc         1 873       0.024200
     42 H22          2.4670    -5.9230    -8.4200 hc         1 873       0.024200
     43 O18          3.3170    -0.0010    -1.3690 o          1 873      -0.643500
@<TRIPOS>BOND
     1     1     2 ar  
     2     1     7 ar  
     3     1     8 1   
     4     2     3 ar  
     5     2     5 1   
     6     3     4 ar  
     7     3    22 1   
     8     4     6 ar  
     9     4    23 1   
    10     5    10 1   
    11     5    43 2   
    12     6     7 ar  
    13     6    24 1   
    14     7    25 1   
    15     8     9 2   
    16     9    10 1   
    17     9    26 1   
    18    10    11 1   
    19    11    12 1   
    20    11    27 1   
    21    11    28 1   
    22    12    13 1   
    23    12    14 1   
    24    12    29 1   
    25    13    30 1   
    26    14    15 1   
    27    14    31 1   
    28    14    32 1   
    29    15    16 1   
    30    15    18 1   
    31    15    33 1   
    32    16    17 1   
    33    16    34 1   
    34    17    21 1   
    35    17    35 1   
    36    17    36 1   
    37    18    19 1   
    38    18    20 1   
    39    18    37 1   
    40    19    38 1   
    41    20    21 1   
    42    20    39 1   
    43    20    40 1   
    44    21    41 1   
    45    21    42 1   
@<TRIPOS>SUBSTRUCTURE
     1 873         1 TEMP              0 ****  ****    0 ROOT
