@<TRIPOS>MOLECULE
molecule
   45    47     1     0     0
SMALL
bcc


@<TRIPOS>ATOM
      1 C24          0.0000     0.0000     0.0000 c3         1 874       0.149800
      2 C23          1.5080     0.0000     0.0000 ca         1 874      -0.107800
      3 C22          2.4190     0.0000     1.0410 ca         1 874      -0.105500
      4 C17          0.7610     0.0010    -2.2290 c3         1 874       0.149800
      5 C20          4.2220     0.0010    -0.5330 ca         1 874      -0.122500
      6 C10         -2.5480    -0.3390    -5.9860 ca         1 874       0.158100
      7 N16         -0.4460     0.0000    -1.3970 n          1 874      -0.493800
      8 C21          3.7760     0.0010     0.7750 ca         1 874      -0.122500
      9 C19          3.3120    -0.0010    -1.5730 ca         1 874      -0.105500
     10 C01          0.6600    -1.8530    -6.1820 c3         1 874      -0.086100
     11 C03         -1.0910    -3.5660    -5.6940 c3         1 874      -0.086100
     12 C04         -1.5850    -1.1550    -5.3980 ca         1 874      -0.118300
     13 C05         -1.3150    -1.0480    -4.0530 ca         1 874      -0.074000
     14 C06         -2.0090    -0.1170    -3.2730 ca         1 874      -0.179600
     15 C07         -2.9780     0.7050    -3.8670 ca         1 874       0.190100
     16 O08         -3.6550     1.6110    -3.1180 oh         1 874      -0.517100
     17 C09         -3.2410     0.5880    -5.2210 ca         1 874      -0.149300
     18 C12         -4.2770     1.4720    -5.8660 c3         1 874       0.196700
     19 O13         -5.5520     0.8290    -5.8110 oh         1 874      -0.601800
     20 C18          1.9540    -0.0010    -1.3070 ca         1 874      -0.107800
     21 H1          -0.3550     0.9010     0.4860 h1         1 874       0.061450
     22 H2          -0.3550    -0.9010     0.4860 h1         1 874       0.061450
     23 H3           2.0690    -0.0000     2.0660 ha         1 874       0.132000
     24 H4           0.7780     0.9020    -2.8300 h1         1 874       0.061450
     25 H5           0.7780    -0.9000    -2.8320 h1         1 874       0.061450
     26 H6           5.2850     0.0010    -0.7430 ha         1 874       0.134500
     27 H7           4.4880     0.0020     1.5910 ha         1 874       0.134500
     28 H8           3.6630    -0.0010    -2.5980 ha         1 874       0.132000
     29 H9           1.1460    -2.2650    -7.0580 hc         1 874       0.037200
     30 H10          0.7980    -0.7780    -6.1640 hc         1 874       0.037200
     31 H11          1.0960    -2.2870    -5.2900 hc         1 874       0.037200
     32 H12         -1.1810    -2.1000    -7.2620 hc         1 874       0.070700
     33 H13         -0.7910    -4.2980    -6.4340 hc         1 874       0.037200
     34 H14         -0.5000    -3.6980    -4.7960 hc         1 874       0.037200
     35 H15         -2.1400    -3.7000    -5.4580 hc         1 874       0.037200
     36 H16         -0.5660    -1.6850    -3.5990 ha         1 874       0.147000
     37 H17         -4.4320     1.2100    -2.7660 ho         1 874       0.448000
     38 H18         -2.3040     0.1980    -7.7840 ho         1 874       0.421000
     39 H19         -4.3260     2.4160    -5.3370 h1         1 874       0.033200
     40 H20         -4.0070     1.6510    -6.9000 h1         1 874       0.033200
     41 H21         -6.1920     1.3630    -6.2510 ho         1 874       0.404000
     42 C14         -1.7220     0.0000    -1.8320 c          1 874       0.712700
     43 O11         -2.8050    -0.4470    -7.3140 oh         1 874      -0.512100
     44 C02         -0.8380    -2.1590    -6.2370 c3         1 874      -0.030400
     45 O15         -2.6360     0.0970    -1.0370 o          1 874      -0.595100
@<TRIPOS>BOND
     1     8     5 ar
     2     8     3 ar
     3     5     9 ar
     4     3     2 ar
     5     9    20 ar
     6     2    20 ar
     7     2     1 1
     8    20     4 1
     9     1     7 1
    10     4     7 1
    11     7    42 1
    12    11    44 1
    13    42    14 1
    14    42    45 2
    15    13    14 ar
    16    13    12 ar
    17    44    12 1
    18    44    10 1
    19    14    15 ar
    20    12     6 ar
    21    15    16 1
    22    15    17 ar
    23     6    17 ar
    24     6    43 1
    25    17    18 1
    26    18    19 1
    27     1    21 1
    28     1    22 1
    29     3    23 1
    30     4    24 1
    31     4    25 1
    32     5    26 1
    33     8    27 1
    34     9    28 1
    35    10    29 1
    36    10    30 1
    37    10    31 1
    38    44    32 1
    39    11    33 1
    40    11    34 1
    41    11    35 1
    42    13    36 1
    43    16    37 1
    44    43    38 1
    45    18    39 1
    46    18    40 1
    47    19    41 1
@<TRIPOS>SUBSTRUCTURE
     1 874         1 TEMP              0 ****  ****    0 ROOT
