@<TRIPOS>MOLECULE
874
   45    47     1     0     0
SMALL
bcc


@<TRIPOS>ATOM
      1 C24          0.0000     0.0000     0.0000 c3         1 874       0.115300
      2 C23          1.5080     0.0000     0.0000 ca         1 874      -0.115300
      3 C22          2.4190     0.0000     1.0410 ca         1 874      -0.071000
      4 C17          0.7610     0.0010    -2.2290 c3         1 874       0.115300
      5 C20          4.2220     0.0010    -0.5330 ca         1 874      -0.097500
      6 C10         -2.5480    -0.3390    -5.9860 ca         1 874       0.190100
      7 N16         -0.4460     0.0000    -1.3970 n          1 874      -0.162800
      8 C21          3.7760     0.0010     0.7750 ca         1 874      -0.097500
      9 C19          3.3120    -0.0010    -1.5730 ca         1 874      -0.071000
     10 C01          0.6600    -1.8530    -6.1820 c3         1 874       0.004900
     11 C03         -1.0910    -3.5660    -5.6940 c3         1 874       0.004900
     12 C04         -1.5850    -1.1550    -5.3980 ca         1 874      -0.145300
     13 C05         -1.3150    -1.0480    -4.0530 ca         1 874      -0.046000
     14 C06         -2.0090    -0.1170    -3.2730 ca         1 874      -0.212600
     15 C07         -2.9780     0.7050    -3.8670 ca         1 874       0.228100
     16 O08         -3.6550     1.6110    -3.1180 oh         1 874      -0.502100
     17 C09         -3.2410     0.5880    -5.2210 ca         1 874      -0.195300
     18 C12         -4.2770     1.4720    -5.8660 c3         1 874       0.293700
     19 O13         -5.5520     0.8290    -5.8110 oh         1 874      -0.585800
     20 C18          1.9540    -0.0010    -1.3070 ca         1 874      -0.115300
     21 H1          -0.3550     0.9010     0.4860 h1         1 874       0.029950
     22 H2          -0.3550    -0.9010     0.4860 h1         1 874       0.029950
     23 H3           2.0690    -0.0000     2.0660 ha         1 874       0.104500
     24 H4           0.7780     0.9020    -2.8300 h1         1 874       0.029950
     25 H5           0.7780    -0.9000    -2.8320 h1         1 874       0.029950
     26 H6           5.2850     0.0010    -0.7430 ha         1 874       0.105500
     27 H7           4.4880     0.0020     1.5910 ha         1 874       0.105500
     28 H8           3.6630    -0.0010    -2.5980 ha         1 874       0.104500
     29 H9           1.1460    -2.2650    -7.0580 hc         1 874       0.004867
     30 H10          0.7980    -0.7780    -6.1640 hc         1 874       0.004867
     31 H11          1.0960    -2.2870    -5.2900 hc         1 874       0.004867
     32 H12         -1.1810    -2.1000    -7.2620 hc         1 874       0.042700
     33 H13         -0.7910    -4.2980    -6.4340 hc         1 874       0.004867
     34 H14         -0.5000    -3.6980    -4.7960 hc         1 874       0.004867
     35 H15         -2.1400    -3.7000    -5.4580 hc         1 874       0.004867
     36 H16         -0.5660    -1.6850    -3.5990 ha         1 874       0.122000
     37 H17         -4.4320     1.2100    -2.7660 ho         1 874       0.432000
     38 H18         -2.3040     0.1980    -7.7840 ho         1 874       0.404000
     39 H19         -4.3260     2.4160    -5.3370 h1         1 874      -0.006800
     40 H20         -4.0070     1.6510    -6.9000 h1         1 874      -0.006800
     41 H21         -6.1920     1.3630    -6.2510 ho         1 874       0.389000
     42 C14         -1.7220     0.0000    -1.8320 c          1 874       0.650700
     43 O11         -2.8050    -0.4470    -7.3140 oh         1 874      -0.492100
     44 C02         -0.8380    -2.1590    -6.2370 c3         1 874       0.005600
     45 O15         -2.6360     0.0970    -1.0370 o          1 874      -0.644100
@<TRIPOS>BOND
     1     1     2 1   
     2     1     7 1   
     3     1    21 1   
     4     1    22 1   
     5     2     3 ar  
     6     2    20 ar  
     7     3     8 ar  
     8     3    23 1   
     9     4     7 1   
    10     4    20 1   
    11     4    24 1   
    12     4    25 1   
    13     5     8 ar  
    14     5     9 ar  
    15     5    26 1   
    16     6    12 ar  
    17     6    17 ar  
    18     6    43 1   
    19     7    42 1   
    20     8    27 1   
    21     9    20 ar  
    22     9    28 1   
    23    10    29 1   
    24    10    30 1   
    25    10    31 1   
    26    10    44 1   
    27    11    33 1   
    28    11    34 1   
    29    11    35 1   
    30    11    44 1   
    31    12    13 ar  
    32    12    44 1   
    33    13    14 ar  
    34    13    36 1   
    35    14    15 ar  
    36    14    42 1   
    37    15    16 1   
    38    15    17 ar  
    39    16    37 1   
    40    17    18 1   
    41    18    19 1   
    42    18    39 1   
    43    18    40 1   
    44    19    41 1   
    45    32    44 1   
    46    38    43 1   
    47    42    45 2   
@<TRIPOS>SUBSTRUCTURE
     1 874         1 TEMP              0 ****  ****    0 ROOT
