@<TRIPOS>MOLECULE
876
   77    80     1     0     0
SMALL
bcc


@<TRIPOS>ATOM
      1 C1          0.8360    0.4900    3.3630 ca        1 876     -0.142000
      2 C2          2.1720    0.5960    2.9800 ca        1 876     -0.083000
      3 C3          2.7320   -0.3100    2.0750 ca        1 876     -0.605000
      4 C4          1.9960   -1.4130    1.6810 ca        1 876     -0.649000
      5 C5          0.7310   -1.6260    2.2280 ca        1 876     -0.126000
      6 C6          0.0800   -0.6090    2.9300 ca        1 876     -0.129000
      7 C7         -1.4080   -0.6250    2.9670 c3        1 876     -0.099000
      8 C8         -1.9940   -1.0880    1.6210 c3        1 876     -0.174000
      9 C9         -3.5270   -0.8840    1.6580 c1        1 876     -0.132000
     10 N10        -6.3200   -1.8410    2.2410 n3        1 876     -0.353000
     11 N11        -1.2340   -0.5010    0.4470 n4        1 876     -0.127000
     12 C12        -1.9840   -0.5740   -0.8260 c2        1 876      0.332000
     13 C13        -2.1350   -1.9420   -1.4080 c3        1 876     -0.250000
     14 O14        -2.3240    0.4860   -1.3580 o         1 876     -0.320000
     15 O15        -4.0900   -0.6260    0.5840 o         1 876     -0.467000
     16 C16        -7.3590   -1.2020    3.0030 c3        1 876     -0.015000
     17 C17        -7.1460   -1.1950    4.5210 c3        1 876     -0.150000
     18 C18        -5.8340   -0.6260    5.0100 c3        1 876     -0.164000
     19 C19        -5.6900    0.8600    4.7750 c3        1 876     -0.167000
     20 C20        -5.6460    1.2160    3.2900 c3        1 876     -0.050000
     21 N21        -6.9420    1.2970    2.6530 n         1 876     -0.317000
     22 C22        -7.7810    0.2080    2.5210 c2        1 876      0.267000
     23 C23        -7.2870    2.5540    2.0270 c3        1 876      0.013000
     24 C24        -6.4130    2.9950    0.8860 ca        1 876     -0.099000
     25 O25        -8.9190    0.3450    2.0170 o         1 876     -0.414000
     26 P26         4.2700    0.0990    1.4770 p5        1 876      1.976000
     27 C27        -6.4170    4.3540    0.5410 ca        1 876     -0.128000
     28 C28        -5.6450    4.8180   -0.5180 ca        1 876     -0.116500
     29 C29        -4.8460    3.9320   -1.2580 cp        1 876     -0.052000
     30 C30        -4.8480    2.5740   -0.9130 ca        1 876     -0.116500
     31 C31        -5.6250    2.1100    0.1470 ca        1 876     -0.128000
     32 C32        -4.0110    4.4150   -2.3560 cq        1 876     -0.027000
     33 C59        -2.7690    3.8140   -2.6160 ca        1 876     -0.119500
     34 C60        -1.9660    4.2820   -3.6550 ca        1 876     -0.136500
     35 C61        -2.3920    5.3460   -4.4490 ca        1 876     -0.141000
     36 C62        -3.6290    5.9420   -4.2020 ca        1 876     -0.136500
     37 C63        -4.4340    5.4810   -3.1630 ca        1 876     -0.119500
     38 P69         2.2070   -2.3070    0.2620 p5        1 876      2.018000
     39 O70         2.5720   -3.7240    0.4100 o         1 876     -0.860000
     40 O71         3.4050   -1.3180   -0.3870 os        1 876     -0.596000
     41 O72         0.9570   -1.9930   -0.5240 o         1 876     -0.860000
     42 O73         4.4000   -1.2320    0.4140 os        1 876     -0.603000
     43 O74         4.1990    1.3930    0.7650 o         1 876     -0.842000
     44 O75         5.3190   -0.1380    2.4920 o         1 876     -0.842000
     45 H1          0.3620    1.2790    3.9620 ha        1 876      0.106000
     46 H2          2.7900    1.4420    3.3170 ha        1 876      0.134000
     47 H5          0.2060   -2.5630    1.9770 ha        1 876      0.130000
     48 H71        -1.7890   -1.3340    3.7480 hc        1 876      0.091000
     49 H72A       -1.8040    0.3940    3.2150 hc        1 876      0.091000
     50 H8         -1.8540   -2.2080    1.5360 hx        1 876      0.106000
     51 H10        -6.3520   -1.5640    1.2770 hn        1 876      0.183500
     52 H11        -1.0140    0.4730    0.6580 hn        1 876      0.271000
     53 H131       -2.5980   -1.8610   -2.4200 hc        1 876      0.133333
     54 H132       -1.1180   -2.4230   -1.4860 hc        1 876      0.133333
     55 H133       -2.7930   -2.5570   -0.7460 hc        1 876      0.133333
     56 H16        -8.2960   -1.8230    2.8170 h1        1 876      0.104000
     57 H171       -7.2210   -2.2570    4.8780 hc        1 876      0.078500
     58 H172       -7.9950   -0.6230    4.9800 hc        1 876      0.078500
     59 H181       -4.9690   -1.1620    4.5360 hc        1 876      0.089000
     60 H182       -5.7650   -0.8180    6.1160 hc        1 876      0.089000
     61 H191       -4.7210    1.2010    5.2270 hc        1 876      0.076500
     62 H192       -6.5160    1.4120    5.2950 hc        1 876      0.076500
     63 H201       -4.9870    0.4700    2.7450 h1        1 876      0.121000
     64 H202       -5.1510    2.2250    3.1870 h1        1 876      0.121000
     65 H231       -8.3480    2.4870    1.6410 h1        1 876      0.096500
     66 H232       -7.2610    3.3560    2.8240 h1        1 876      0.096500
     67 H27        -7.0320    5.0610    1.1180 ha        1 876      0.149000
     68 H28        -5.6460    5.8890   -0.7640 ha        1 876      0.144000
     69 H30        -4.2200    1.8530   -1.4670 ha        1 876      0.144000
     70 H31        -5.5780    1.0330    0.3980 ha        1 876      0.149000
     71 H59        -2.4260    2.9650   -1.9980 ha        1 876      0.146000
     72 H60        -0.9920    3.8070   -3.8440 ha        1 876      0.127000
     73 H61        -1.7560    5.7140   -5.2660 ha        1 876      0.119000
     74 H62        -3.9710    6.7770   -4.8290 ha        1 876      0.127000
     75 H63        -5.4120    5.9490   -2.9800 ha        1 876      0.146000
     76 H102       -5.3970   -1.6400    2.5910 hn        1 876      0.183500
     77 H112       -0.3130   -1.0310    0.2760 hn        1 876      0.271000
@<TRIPOS>BOND
     1    1    2 1   
     2    1    6 1   
     3    1   45 1   
     4    2    3 1   
     5    2   46 1   
     6    3    4 1   
     7    3   26 1   
     8    4    5 1   
     9    4   38 1   
    10    5    6 1   
    11    5   47 1   
    12    6    7 1   
    13    7    8 1   
    14    7   48 1   
    15    7   49 1   
    16    8    9 1   
    17    8   11 1   
    18    8   50 1   
    19    9   15 1   
    20   10   16 1   
    21   10   51 1   
    22   10   76 1   
    23   11   12 1   
    24   11   52 1   
    25   11   77 1   
    26   12   13 1   
    27   12   14 1   
    28   13   53 1   
    29   13   54 1   
    30   13   55 1   
    31   16   17 1   
    32   16   22 1   
    33   16   56 1   
    34   17   18 1   
    35   17   57 1   
    36   17   58 1   
    37   18   19 1   
    38   18   59 1   
    39   18   60 1   
    40   19   20 1   
    41   19   61 1   
    42   19   62 1   
    43   20   21 1   
    44   20   63 1   
    45   20   64 1   
    46   21   22 1   
    47   21   23 1   
    48   22   25 1   
    49   23   24 1   
    50   23   65 1   
    51   23   66 1   
    52   24   27 1   
    53   24   31 1   
    54   26   42 1   
    55   26   43 1   
    56   26   44 1   
    57   27   28 1   
    58   27   67 1   
    59   28   29 1   
    60   28   68 1   
    61   29   30 1   
    62   29   32 1   
    63   30   31 1   
    64   30   69 1   
    65   31   70 1   
    66   32   33 1   
    67   32   37 1   
    68   33   34 1   
    69   33   71 1   
    70   34   35 1   
    71   34   72 1   
    72   35   36 1   
    73   35   73 1   
    74   36   37 1   
    75   36   74 1   
    76   37   75 1   
    77   38   39 1   
    78   38   40 1   
    79   38   41 1   
    80   40   42 1   
@<TRIPOS>SUBSTRUCTURE
     1 876         1 TEMP              0 ****  ****    0 ROOT
