@<TRIPOS>MOLECULE
molecule
   75    78     1     0     0
SMALL
bcc


@<TRIPOS>ATOM
      1 C1           0.0000     0.0000     0.0000 ca         1 876      -0.170000
      2 C2           1.3830     0.0000     0.0000 ca         1 876      -0.115000
      3 C3           2.0730     0.0000     1.1990 ca         1 876      -0.138500
      4 C4           1.3820     0.0010     2.3940 ca         1 876      -0.154500
      5 C5          -0.0000     0.0060     2.3930 ca         1 876      -0.103000
      6 C6          -0.6910     0.0010     1.1970 ca         1 876      -0.162300
      7 C7          -2.1970     0.0010     1.1960 c3         1 876      -0.031100
      8 C8          -2.7070    -1.4410     1.1960 c3         1 876       0.064700
      9 C9          -4.2150    -1.4410     1.1960 c          1 876       0.632100
     10 N10         -4.8890    -1.4400     2.3620 ns         1 876      -0.606900
     11 N11         -2.2200    -2.1310    -0.0000 ns         1 876      -0.556900
     12 C12         -2.5440    -1.6710    -1.2240 c          1 876       0.659100
     13 C13         -2.0420    -2.3820    -2.4550 c3         1 876      -0.168100
     14 O14         -3.2420    -0.6860    -1.3350 o          1 876      -0.567100
     15 O15         -4.8200    -1.4410     0.1450 o          1 876      -0.577100
     16 C16         -6.3540    -1.4400     2.3610 c3         1 876       0.049700
     17 C17         -6.8690    -1.8700     3.7380 c3         1 876      -0.088400
     18 C18         -5.9520    -1.3650     4.8360 c3         1 876      -0.085400
     19 C19         -5.9450     0.1460     4.9820 c3         1 876      -0.107400
     20 C20         -5.3200     0.8100     3.7530 c3         1 876       0.088000
     21 N21         -6.3680     1.0010     2.7370 n          1 876      -0.458800
     22 C22         -6.8620    -0.0450     2.0680 c          1 876       0.699500
     23 C23         -6.8710     2.3470     2.4550 c3         1 876       0.177300
     24 C24         -6.0450     2.9720     1.3610 ca         1 876      -0.252300
     25 O25         -7.7210     0.1250     1.2300 o          1 876      -0.678500
     26 P26          3.8870    -0.0010     1.1990 p5         1 876       1.087000
     27 C27         -4.9240     3.7150     1.6820 ca         1 876      -0.105500
     28 C28         -4.1610     4.2850     0.6840 ca         1 876      -0.145000
     29 C29         -4.5300     4.1220    -0.6500 cp         1 876      -0.084000
     30 C30         -5.6640     3.3770    -0.9680 ca         1 876      -0.145000
     31 C31         -6.4170     2.8060     0.0380 ca         1 876      -0.105500
     32 C32         -3.7170     4.7370    -1.7290 cp         1 876      -0.064000
     33 C59         -3.4780     4.0380    -2.9090 ca         1 876      -0.150500
     34 C60         -2.7270     4.6180    -3.9120 ca         1 876      -0.128500
     35 C61         -2.2010     5.8860    -3.7400 ca         1 876      -0.266000
     36 C62         -2.4310     6.5830    -2.5670 ca         1 876      -0.128500
     37 C63         -3.1860     6.0140    -1.5620 ca         1 876      -0.150500
     38 P69          2.2890     0.0010     3.9650 p5         1 876       1.094000
     39 O70          2.7180     1.5070     4.3380 o          1 876      -0.778167
     40 O71          3.5000    -0.8400     3.8360 o          1 876      -0.778167
     41 O72          1.3460    -0.5910     5.1280 o          1 876      -0.778167
     42 O73          4.3810     0.8330     2.3160 o          1 876      -0.779500
     43 O74          4.4230    -1.5090     1.3770 o          1 876      -0.779500
     44 O75          4.4250     0.5970    -0.1960 o          1 876      -0.779500
     45 H1          -0.5410    -0.0020    -0.9380 ha         1 876       0.073000
     46 H2           1.9250    -0.0000    -0.9380 ha         1 876       0.117000
     47 H5          -0.5420     0.0060     3.3310 ha         1 876       0.109000
     48 H71         -2.5570     0.5120     0.3110 hc         1 876       0.061200
     49 H72A        -2.5580     0.5120     2.0800 hc         1 876       0.061200
     50 H8          -2.3460    -1.9520     2.0810 h1         1 876       0.065700
     51 H10         -4.3910    -1.5110     3.2270 hn         1 876       0.324500
     52 H11         -1.6720    -2.9630     0.0920 hn         1 876       0.309500
     53 H131        -2.7920    -3.0850    -2.7970 hc         1 876       0.043700
     54 H132        -1.8440    -1.6570    -3.2350 hc         1 876       0.043700
     55 H133        -1.1290    -2.9150    -2.2170 hc         1 876       0.043700
     56 H16         -6.7220    -2.1250     1.6070 h1         1 876       0.082700
     57 H171        -6.9110    -2.9520     3.7790 hc         1 876       0.033700
     58 H172        -7.8620    -1.4630     3.8890 hc         1 876       0.033700
     59 H181        -4.9430    -1.6940     4.6190 hc         1 876       0.036700
     60 H182        -6.2690    -1.8000     5.7760 hc         1 876       0.036700
     61 H191        -5.3720     0.4150     5.8610 hc         1 876       0.037200
     62 H192        -6.9640     0.4960     5.0940 hc         1 876       0.037200
     63 H201        -4.5390     0.1730     3.3550 h1         1 876       0.079200
     64 H202        -4.9060     1.7710     4.0320 h1         1 876       0.079200
     65 H231        -6.8030     2.9530     3.3500 h1         1 876       0.025700
     66 H232        -7.9050     2.2870     2.1380 h1         1 876       0.025700
     67 H27         -4.6570     3.8680     2.7200 ha         1 876       0.095000
     68 H28         -3.3190     4.9160     0.9390 ha         1 876       0.104500
     69 H30         -5.9910     3.3010    -1.9980 ha         1 876       0.104500
     70 H31         -7.3190     2.2580    -0.2060 ha         1 876       0.095000
     71 H59         -3.8890     3.0450    -3.0440 ha         1 876       0.109500
     72 H60         -2.5410     4.0760    -4.8310 ha         1 876       0.079000
     73 H61         -1.6100     6.3360    -4.5290 ha         1 876       0.075000
     74 H62         -2.0180     7.5760    -2.4380 ha         1 876       0.079000
     75 H63         -3.3660     6.5600    -0.6440 ha         1 876       0.109500
@<TRIPOS>BOND
     1     1     2 ar
     2     1     6 ar
     3     1    45 1
     4     2     3 ar
     5     2    46 1
     6     3     4 ar
     7     3    26 1
     8     4     5 ar
     9     4    38 1
    10     5     6 ar
    11     5    47 1
    12     6     7 1
    13     7     8 1
    14     7    48 1
    15     7    49 1
    16     8     9 1
    17     8    11 1
    18     8    50 1
    19     9    10 1
    20     9    15 2
    21    10    16 1
    22    10    51 1
    23    11    12 1
    24    11    52 1
    25    12    13 1
    26    12    14 2
    27    13    53 1
    28    13    54 1
    29    13    55 1
    30    16    17 1
    31    16    22 1
    32    16    56 1
    33    17    18 1
    34    17    57 1
    35    17    58 1
    36    18    19 1
    37    18    59 1
    38    18    60 1
    39    19    20 1
    40    19    61 1
    41    19    62 1
    42    20    21 1
    43    20    63 1
    44    20    64 1
    45    21    22 1
    46    21    23 1
    47    22    25 2
    48    23    24 1
    49    23    65 1
    50    23    66 1
    51    24    27 ar
    52    24    31 ar
    53    26    42 1
    54    26    43 1
    55    26    44 1
    56    27    28 ar
    57    27    67 1
    58    28    29 ar
    59    28    68 1
    60    29    30 ar
    61    29    32 1
    62    30    31 ar
    63    30    69 1
    64    31    70 1
    65    32    33 ar
    66    32    37 ar
    67    33    34 ar
    68    33    71 1
    69    34    35 ar
    70    34    72 1
    71    35    36 ar
    72    35    73 1
    73    36    37 ar
    74    36    74 1
    75    37    75 1
    76    38    39 1
    77    38    40 1
    78    38    41 1
@<TRIPOS>SUBSTRUCTURE
     1 876         1 TEMP              0 ****  ****    0 ROOT
