@<TRIPOS>MOLECULE
molecule
   46    47     1     0     0
SMALL
bcc


@<TRIPOS>ATOM
      1 C1           0.0000     0.0000     0.0000 ca         1 877      -0.177000
      2 C2           1.3870     0.0000     0.0000 ca         1 877       0.109100
      3 C3           2.0800     0.0000     1.2010 ca         1 877      -0.070300
      4 C4           1.3890     0.0110     2.3980 ca         1 877      -0.179000
      5 C5           0.0040     0.0150     2.3990 ca         1 877       0.107100
      6 C6          -0.6910     0.0100     1.1970 ca         1 877      -0.007900
      7 C9           3.5870    -0.0040     1.2020 c3         1 877      -0.150100
      8 C10          4.0940     1.4090     1.0670 c          1 877       0.660100
      9 N13          5.4200     1.6490     1.0450 ns         1 877      -0.553400
     10 C14          5.8890     2.9590     1.0310 ca         1 877       0.701200
     11 O15          3.3090     2.3290     0.9810 o          1 877      -0.520100
     12 N16          5.0230     3.9600     0.9360 nb         1 877      -0.811000
     13 C17          5.4140     5.2220     0.9180 ca         1 877       0.766600
     14 C18          6.7750     5.5480     0.9970 ca         1 877      -0.290300
     15 C19          7.7190     4.5050     1.1050 ca         1 877       0.263600
     16 C20          7.2530     3.1960     1.1180 ca         1 877      -0.446300
     17 O22         -0.6760     0.0250     3.5760 os         1 877      -0.256900
     18 C23          0.3020     0.0290     4.6170 c3         1 877       0.073700
     19 O27          2.0670    -0.0090    -1.1770 os         1 877      -0.318900
     20 C28          1.0890    -0.0180    -2.2190 c3         1 877       0.064700
     21 N33          9.0760     4.7790     1.1880 nv         1 877      -0.832200
     22 C34          7.2000     6.9160     0.9780 cg         1 877       0.267800
     23 O36          4.4910     6.2100     0.8180 os         1 877      -0.389100
     24 C37          3.2130     5.5750     0.7510 c3         1 877      -0.227600
     25 C38          2.1200     6.6390     0.6370 c3         1 877      -0.024100
     26 Br          -2.5820     0.0160     1.1960 br         1 877      -0.074100
     27 N1           7.5210     8.0050     0.9510 n1         1 877      -0.388800
     28 H1          -0.5500     0.0010    -0.9330 ha         1 877       0.170000
     29 H4           1.8800    -0.0840     3.3590 ha         1 877       0.159000
     30 H91          3.5940    -0.7370     1.9990 hc         1 877       0.088700
     31 H92          3.7870    -0.5890     0.3120 hc         1 877       0.088700
     32 HN13         5.8410     0.7420     1.0070 hn         1 877       0.346500
     33 H20          8.0460     2.7310     0.5450 ha         1 877       0.154000
     34 H231         0.6340    -0.8970     5.0710 h1         1 877       0.047367
     35 H232         1.2330     0.5380     4.3990 h1         1 877       0.047367
     36 H233         0.0050     0.7380     5.3810 h1         1 877       0.047367
     37 H281         1.0350     1.0620    -2.2740 h1         1 877       0.063033
     38 H282         0.2620    -0.4980    -1.7090 h1         1 877       0.063033
     39 H283         1.3340    -0.4060    -3.2000 h1         1 877       0.063033
     40 H331         9.4800     3.9200     1.5060 hn         1 877       0.421800
     41 H332         9.4500     5.6330     1.5500 hn         1 877       0.421800
     42 H371         3.5460     4.5470     0.6630 h1         1 877       0.183700
     43 H372         2.5030     5.8400    -0.0220 h1         1 877       0.183700
     44 H381         2.5620     7.4670     1.1790 hc         1 877       0.051367
     45 H382         1.2000     6.5270     1.1980 hc         1 877       0.051367
     46 H383         2.1990     7.2380    -0.2620 hc         1 877       0.051367
@<TRIPOS>BOND
     1     1     2 ar
     2     1     6 ar
     3     1    28 1
     4     2     3 ar
     5     2    19 1
     6     3     4 ar
     7     3     7 1
     8     4     5 ar
     9     4    29 1
    10     5     6 ar
    11     5    17 1
    12     6    26 1
    13     7     8 1
    14     7    30 1
    15     7    31 1
    16     8     9 1
    17     8    11 2
    18     9    10 1
    19     9    32 1
    20    10    12 ar
    21    10    16 ar
    22    12    13 ar
    23    13    14 ar
    24    13    23 1
    25    14    15 ar
    26    14    22 1
    27    15    16 ar
    28    15    21 1
    29    16    33 1
    30    17    18 1
    31    18    34 1
    32    18    35 1
    33    18    36 1
    34    19    20 1
    35    20    37 1
    36    20    38 1
    37    20    39 1
    38    21    40 1
    39    21    41 1
    40    22    27 3
    41    23    24 1
    42    24    25 1
    43    24    42 1
    44    24    43 1
    45    25    44 1
    46    25    45 1
    47    25    46 1
@<TRIPOS>SUBSTRUCTURE
     1 877         1 TEMP              0 ****  ****    0 ROOT
