@<TRIPOS>MOLECULE
877
   46    48     1     0     0
SMALL
bcc


@<TRIPOS>ATOM
      1 C1           0.0000     0.0000     0.0000 ca         1 877      -0.178000
      2 C2           1.3870     0.0000     0.0000 ca         1 877       0.080000
      3 C3           2.0800     0.0000     1.2010 ca         1 877      -0.074000
      4 C4           1.3890     0.0110     2.3980 ca         1 877      -0.176000
      5 C5           0.0040     0.0150     2.3990 ca         1 877       0.069000
      6 C6          -0.6910     0.0100     1.1970 ca         1 877      -0.103000
      7 C9           3.5870    -0.0040     1.2020 c3         1 877      -0.128000
      8 C10          4.0940     1.4090     1.0670 c2         1 877       0.211000
      9 N13          5.4200     1.6490     1.0450 ns         1 877       0.119000
     10 C14          5.8890     2.9590     1.0310 c2         1 877       0.099000
     11 O15          3.3090     2.3290     0.9810 o          1 877      -0.323000
     12 N16          5.0230     3.9600     0.9360 n2         1 877      -0.145000
     13 C17          5.4140     5.2220     0.9180 c2         1 877       0.225000
     14 C18          6.7750     5.5480     0.9970 c2         1 877      -0.185000
     15 C19          7.7190     4.5050     1.1050 c2         1 877       0.049000
     16 C20          7.2530     3.1960     1.1180 c2         1 877      -0.372000
     17 O22         -0.6760     0.0250     3.5760 os         1 877      -0.125000
     18 C23          0.3020     0.0290     4.6170 c3         1 877      -0.007000
     19 O27          2.0670    -0.0090    -1.1770 os         1 877      -0.182000
     20 C28          1.0890    -0.0180    -2.2190 c3         1 877      -0.042000
     21 N33          9.0760     4.7790     1.1880 nv         1 877       0.093000
     22 C34          7.2000     6.9160     0.9780 c1         1 877      -0.066000
     23 O36          4.4910     6.2100     0.8180 os         1 877      -0.125000
     24 C37          3.2130     5.5750     0.7510 c3         1 877      -0.369000
     25 C38          2.1200     6.6390     0.6370 DU         1 877      -0.005000
     26 Br          -2.5820     0.0160     1.1960 br         1 877       0.032000
     27 N1           7.5210     8.0050     0.9510 n1         1 877      -0.078000
     28 H1          -0.5500     0.0010    -0.9330 ha         1 877       0.159000
     29 H4           1.8800    -0.0840     3.3590 ha         1 877       0.147000
     30 H91          3.5940    -0.7370     1.9990 hc         1 877       0.095500
     31 H92          3.7870    -0.5890     0.3120 hc         1 877       0.095500
     32 HN13         5.8410     0.7420     1.0070 hn         1 877       0.098000
     33 H20          8.0460     2.7310     0.5450 ha         1 877       0.142000
     34 H231         0.6340    -0.8970     5.0710 h1         1 877       0.045333
     35 H232         1.2330     0.5380     4.3990 h1         1 877       0.045333
     36 H233         0.0050     0.7380     5.3810 h1         1 877       0.045333
     37 H281         1.0350     1.0620    -2.2740 h1         1 877       0.067000
     38 H282         0.2620    -0.4980    -1.7090 h1         1 877       0.067000
     39 H283         1.3340    -0.4060    -3.2000 h1         1 877       0.067000
     40 H331         9.4800     3.9200     1.5060 hn         1 877       0.062000
     41 H332         9.4500     5.6330     1.5500 hn         1 877       0.062000
     42 H371         3.5460     4.5470     0.6630 h1         1 877       0.258000
     43 H372         2.5030     5.8400    -0.0220 DU         1 877       0.120000
     44 H381         2.5620     7.4670     1.1790 ha         1 877       0.044000
     45 H382         1.2000     6.5270     1.1980 ha         1 877       0.044000
     46 H383         2.1990     7.2380    -0.2620 ha         1 877       0.044000
@<TRIPOS>BOND
     1     1     2 1   
     2     1     6 1   
     3     1    28 1   
     4     2     3 1   
     5     2    19 1   
     6     3     4 1   
     7     3     7 1   
     8     4     5 1   
     9     4    29 1   
    10     5     6 1   
    11     5    17 1   
    12     6    26 1   
    13     7     8 1   
    14     7    30 1   
    15     7    31 1   
    16     8     9 1   
    17     8    11 1   
    18     9    10 1   
    19     9    32 1   
    20    10    12 1   
    21    10    16 1   
    22    12    13 1   
    23    13    14 1   
    24    13    23 1   
    25    14    15 1   
    26    14    22 1   
    27    15    16 1   
    28    15    21 1   
    29    16    33 1   
    30    17    18 1   
    31    18    34 1   
    32    18    35 1   
    33    18    36 1   
    34    19    20 1   
    35    20    37 1   
    36    20    38 1   
    37    20    39 1   
    38    21    40 1   
    39    21    41 1   
    40    22    27 1   
    41    23    24 1   
    42    24    25 1   
    43    24    42 1   
    44    24    43 1   
    45    25    43 1   
    46    25    44 1   
    47    25    45 1   
    48    25    46 1   
@<TRIPOS>SUBSTRUCTURE
     1 877         1 TEMP              0 ****  ****    0 ROOT
