@<TRIPOS>MOLECULE
molecule
   20    20     1     0     0
SMALL
bcc


@<TRIPOS>ATOM
      1 C1           0.0000     0.0000     0.0000 ca         1 878      -0.113000
      2 C2           1.3790     0.0000     0.0000 ca         1 878      -0.170000
      3 C3           2.0760     0.0000     1.2010 ca         1 878       0.121600
      4 C4           1.3690    -0.0050     2.4130 ca         1 878      -0.157600
      5 C5          -0.0270    -0.0000     2.3980 ca         1 878      -0.054000
      6 C6          -0.7010     0.0010     1.1960 ca         1 878       0.005900
      7 C10          2.0970    -0.0060     3.6950 c          1 878       0.886200
      8 O11          3.3070     0.1060     3.7070 o          1 878      -0.837300
      9 O12          1.4200    -0.1280     4.8530 o          1 878      -0.837300
     10 N13          3.4670     0.0010     1.2010 ns         1 878      -0.446100
     11 C14          4.1420     0.6830     0.2570 c          1 878       0.559100
     12 O15          3.5370     1.2540    -0.6270 o          1 878      -0.645100
     13 C16          5.6340     0.7410     0.2990 c          1 878       0.836600
     14 O17          6.2370     0.1730     1.1810 o          1 878      -0.822300
     15 O18          6.3070     1.4240    -0.6450 o          1 878      -0.822300
     16 I19         -2.7960     0.0000     1.1760 i          1 878      -0.294900
     17 H1          -0.5390    -0.0020    -0.9400 ha         1 878       0.105000
     18 H2           1.9190    -0.0230    -0.9390 ha         1 878       0.157000
     19 H5          -0.5790     0.0460     3.3290 ha         1 878       0.154000
     20 H13          3.9670    -0.5360     1.8820 hn         1 878       0.374500
@<TRIPOS>BOND
     1     1     2 ar
     2     1     6 ar
     3     1    17 1
     4     2     3 ar
     5     2    18 1
     6     3     4 ar
     7     3    10 1
     8     4     5 ar
     9     4     7 1
    10     5     6 ar
    11     5    19 1
    12     6    16 1
    13     7     8 1
    14     7     9 1
    15    10    11 1
    16    10    20 1
    17    11    12 2
    18    11    13 1
    19    13    14 1
    20    13    15 1
@<TRIPOS>SUBSTRUCTURE
     1 878         1 TEMP              0 ****  ****    0 ROOT
