@<TRIPOS>MOLECULE
879
   53    57     1     0     0
SMALL
bcc


@<TRIPOS>ATOM
      1 C1           0.0000     0.0000     0.0000 ca         1 879      -0.102000
      2 N1          -3.7280    -4.6920    10.9350 nb         1 879      -0.591500
      3 O1          -5.8770    -3.4390     8.3540 os         1 879      -0.203200
      4 Cl1          2.2780    -0.0030     3.8940 cl         1 879      -0.008400
      5 C2           1.3840     0.0000     0.0000 ca         1 879      -0.093000
      6 N2          -5.8360    -5.5750    11.2330 nb         1 879      -0.591500
      7 C3          -4.5420    -1.7520     0.5270 ca         1 879      -0.064000
      8 N3          -4.3770    -1.4040     3.2380 nb         1 879      -0.563000
      9 C4          -0.6940    -0.0010     1.1930 ca         1 879      -0.107000
     10 N4          -1.6420    -0.9460     4.0890 na         1 879       0.483900
     11 C5          -4.0220    -0.6590     6.9210 ca         1 879      -0.091500
     12 N5          -6.6060    -0.6790     3.3550 nv         1 879      -0.658500
     13 C6          -3.1180    -2.7410     6.0900 ca         1 879      -0.091500
     14 C7          -4.9470    -1.3610     7.6620 ca         1 879      -0.109500
     15 C8          -4.0480    -3.4360     6.8350 ca         1 879      -0.109500
     16 C9           2.0820     0.0000     1.1940 ca         1 879      -0.099000
     17 C10         -1.4900     0.5620     5.7040 cc         1 879      -0.158000
     18 C11         -0.6270     0.9370     4.6670 cc         1 879      -0.146000
     19 C12         -3.3650    -2.0250     1.2110 ca         1 879      -0.214300
     20 C13         -5.6350    -1.3000     1.2450 ca         1 879      -0.219300
     21 C14         -4.1150    -4.0160     9.8660 ca         1 879       0.372200
     22 C15         -6.3010    -4.9310    10.1750 ca         1 879       0.372200
     23 C16         -4.5740    -5.4530    11.5980 ca         1 879       0.581900
     24 C17         -3.1000    -1.3460     6.1280 ca         1 879       0.043000
     25 C18          0.0030    -0.0010     2.4020 ca         1 879       0.013000
     26 C19         -4.9630    -2.7500     7.6210 ca         1 879       0.075100
     27 C20         -5.4380    -4.1170     9.4470 ca         1 879      -0.094500
     28 C21          1.4010    -0.0020     2.3950 ca         1 879      -0.026600
     29 C22         -2.1050    -0.5970     5.3320 cd         1 879      -0.245300
     30 C23         -0.7330    -0.0020     3.6820 cd         1 879      -0.268300
     31 C24         -3.3190    -1.8370     2.5790 ca         1 879       0.345600
     32 C25         -5.5170    -1.1330     2.6220 ca         1 879       0.504200
     33 H1          -0.5400    -0.0000    -0.9390 ha         1 879       0.104000
     34 H2           1.9230     0.0010    -0.9400 ha         1 879       0.106000
     35 H3          -4.6040    -1.8920    -0.5460 ha         1 879       0.110000
     36 H4          -1.7770    -0.0010     1.1900 ha         1 879       0.118000
     37 H5          -4.0100     0.4240     6.9530 ha         1 879       0.115500
     38 HN5         -7.2960    -1.3270     3.6810 hn         1 879       0.279800
     39 HN5A        -6.7270     0.3020     3.5160 hn         1 879       0.279800
     40 H6          -2.4040    -3.2770     5.4760 ha         1 879       0.115500
     41 H7          -5.6630    -0.8300     8.2770 ha         1 879       0.115000
     42 H8          -4.0630    -4.5190     6.8060 ha         1 879       0.115000
     43 H9           3.1650     0.0000     1.1870 ha         1 879       0.115000
     44 H10         -1.6420     1.0970     6.6340 ha         1 879       0.128000
     45 H11          0.0100     1.8130     4.6500 ha         1 879       0.131000
     46 H12         -2.4920    -2.3810     0.6770 ha         1 879       0.120000
     47 H13         -6.5690    -1.0780     0.7430 ha         1 879       0.120000
     48 H14         -3.4130    -3.3920     9.3260 h4         1 879       0.002100
     49 H15         -7.3380    -5.0350     9.8800 h4         1 879       0.002100
     50 H16         -4.2250    -5.9940    12.4690 h5         1 879       0.002100
     51 H26         -1.2630    -2.3880     2.6210 h1         1 879       0.056200
     52 H26A        -2.2060    -2.9590     4.0050 h1         1 879       0.056200
     53 C26         -2.0440    -2.1310     3.3260 c3         1 879      -0.129000
@<TRIPOS>BOND
     1     1     5 ar  
     2     1     9 ar  
     3     1    33 1   
     4     2    21 ar  
     5     2    23 ar  
     6     3    26 1   
     7     3    27 1   
     8     4    28 1   
     9     5    16 ar  
    10     5    34 1   
    11     6    22 ar  
    12     6    23 ar  
    13     7    19 ar  
    14     7    20 ar  
    15     7    35 1   
    16     8    31 ar  
    17     8    32 ar  
    18     9    25 ar  
    19     9    36 1   
    20    10    29 1   
    21    10    30 1   
    22    10    53 1   
    23    11    14 ar  
    24    11    24 ar  
    25    11    37 1   
    26    12    32 1   
    27    12    38 1   
    28    12    39 1   
    29    13    15 ar  
    30    13    24 ar  
    31    13    40 1   
    32    14    26 ar  
    33    14    41 1   
    34    15    26 ar  
    35    15    42 1   
    36    16    28 ar  
    37    16    43 1   
    38    17    18 1   
    39    17    29 2   
    40    17    44 1   
    41    18    30 2   
    42    18    45 1   
    43    19    31 ar  
    44    19    46 1   
    45    20    32 ar  
    46    20    47 1   
    47    21    27 ar  
    48    21    48 1   
    49    22    27 ar  
    50    22    49 1   
    51    23    50 1   
    52    24    29 1   
    53    25    28 ar  
    54    25    30 1   
    55    31    53 1   
    56    51    53 1   
    57    52    53 1   
@<TRIPOS>SUBSTRUCTURE
     1 879         1 TEMP              0 ****  ****    0 ROOT
