@<TRIPOS>MOLECULE
molecule
   53    57     1     0     0
SMALL
bcc


@<TRIPOS>ATOM
      1 C1           0.0000     0.0000     0.0000 ca         1 879      -0.133000
      2 N1          -3.7280    -4.6920    10.9350 nb         1 879      -0.706000
      3 O1          -5.8770    -3.4390     8.3540 os         1 879      -0.236200
      4 Cl1          2.2780    -0.0030     3.8940 cl         1 879      -0.093400
      5 C2           1.3840     0.0000     0.0000 ca         1 879      -0.118000
      6 N2          -5.8360    -5.5750    11.2330 nb         1 879      -0.706000
      7 C3          -4.5420    -1.7520     0.5270 ca         1 879      -0.091000
      8 N3          -4.3770    -1.4040     3.2380 nb         1 879      -0.690000
      9 C4          -0.6940    -0.0010     1.1930 ca         1 879      -0.116000
     10 N4          -1.6420    -0.9460     4.0890 na         1 879      -0.026100
     11 C5          -4.0220    -0.6590     6.9210 ca         1 879      -0.107000
     12 N5          -6.6060    -0.6790     3.3550 nv         1 879      -1.082500
     13 C6          -3.1180    -2.7410     6.0900 ca         1 879      -0.107000
     14 C7          -4.9470    -1.3610     7.6620 ca         1 879      -0.134500
     15 C8          -4.0480    -3.4360     6.8350 ca         1 879      -0.134500
     16 C9           2.0820     0.0000     1.1940 ca         1 879      -0.124000
     17 C10         -1.4900     0.5620     5.7040 cc         1 879      -0.188000
     18 C11         -0.6270     0.9370     4.6670 cc         1 879      -0.166000
     19 C12         -3.3650    -2.0250     1.2110 ca         1 879      -0.256300
     20 C13         -5.6350    -1.3000     1.2450 ca         1 879      -0.255300
     21 C14         -4.1150    -4.0160     9.8660 ca         1 879       0.405200
     22 C15         -6.3010    -4.9310    10.1750 ca         1 879       0.405200
     23 C16         -4.5740    -5.4530    11.5980 ca         1 879       0.637900
     24 C17         -3.1000    -1.3460     6.1280 ca         1 879       0.024000
     25 C18          0.0030    -0.0010     2.4020 ca         1 879      -0.008000
     26 C19         -4.9630    -2.7500     7.6210 ca         1 879       0.077100
     27 C20         -5.4380    -4.1170     9.4470 ca         1 879      -0.113500
     28 C21          1.4010    -0.0020     2.3950 ca         1 879       0.043400
     29 C22         -2.1050    -0.5970     5.3320 cd         1 879      -0.053300
     30 C23         -0.7330    -0.0020     3.6820 cd         1 879      -0.079300
     31 C24         -3.3190    -1.8370     2.5790 ca         1 879       0.404600
     32 C25         -5.5170    -1.1330     2.6220 ca         1 879       0.687200
     33 H1          -0.5400    -0.0000    -0.9390 ha         1 879       0.134000
     34 H2           1.9230     0.0010    -0.9400 ha         1 879       0.136000
     35 H3          -4.6040    -1.8920    -0.5460 ha         1 879       0.139000
     36 H4          -1.7770    -0.0010     1.1900 ha         1 879       0.147000
     37 H5          -4.0100     0.4240     6.9530 ha         1 879       0.141500
     38 HN5         -7.2960    -1.3270     3.6810 hn         1 879       0.438800
     39 HN5A        -6.7270     0.3020     3.5160 hn         1 879       0.438800
     40 H6          -2.4040    -3.2770     5.4760 ha         1 879       0.141500
     41 H7          -5.6630    -0.8300     8.2770 ha         1 879       0.143000
     42 H8          -4.0630    -4.5190     6.8060 ha         1 879       0.143000
     43 H9           3.1650     0.0000     1.1870 ha         1 879       0.146000
     44 H10         -1.6420     1.0970     6.6340 ha         1 879       0.151000
     45 H11          0.0100     1.8130     4.6500 ha         1 879       0.156000
     46 H12         -2.4920    -2.3810     0.6770 ha         1 879       0.140000
     47 H13         -6.5690    -1.0780     0.7430 ha         1 879       0.145000
     48 H14         -3.4130    -3.3920     9.3260 h4         1 879       0.043100
     49 H15         -7.3380    -5.0350     9.8800 h4         1 879       0.043100
     50 H16         -4.2250    -5.9940    12.4690 h5         1 879       0.062100
     51 H26         -1.2630    -2.3880     2.6210 h1         1 879       0.079200
     52 H26A        -2.2060    -2.9590     4.0050 h1         1 879       0.079200
     53 C26         -2.0440    -2.1310     3.3260 c3         1 879      -0.009000
@<TRIPOS>BOND
     1     1     5 ar
     2     1     9 ar
     3     2    21 ar
     4     2    23 ar
     5     3    26 1
     6     3    27 1
     7     4    28 1
     8     5    16 ar
     9     6    22 ar
    10     6    23 ar
    11     7    19 ar
    12     7    20 ar
    13     8    31 ar
    14     8    32 ar
    15     9    25 ar
    16    10    29 1
    17    10    30 1
    18    10    53 1
    19    11    14 ar
    20    11    24 ar
    21    12    32 1
    22    13    15 ar
    23    13    24 ar
    24    14    26 ar
    25    15    26 ar
    26    16    28 ar
    27    17    18 1
    28    17    29 2
    29    18    30 2
    30    19    31 ar
    31    20    32 ar
    32    21    27 ar
    33    22    27 ar
    34    24    29 1
    35    25    28 ar
    36    25    30 1
    37    31    53 1
    38     1    33 1
    39     5    34 1
    40     7    35 1
    41     9    36 1
    42    11    37 1
    43    12    38 1
    44    12    39 1
    45    13    40 1
    46    14    41 1
    47    15    42 1
    48    16    43 1
    49    17    44 1
    50    18    45 1
    51    19    46 1
    52    20    47 1
    53    21    48 1
    54    22    49 1
    55    23    50 1
    56    53    51 1
    57    53    52 1
@<TRIPOS>SUBSTRUCTURE
     1 879         1 TEMP              0 ****  ****    0 ROOT
