@<TRIPOS>MOLECULE
87C
   45    47     1     0     0
SMALL
bcc


@<TRIPOS>ATOM
      1 N10          0.0000     0.0000     0.0000 nc         1 87C      -0.555300
      2 C11          1.3430     0.0000     0.0000 cc         1 87C       0.148400
      3 C12          2.0080     0.0000     1.1790 cd         1 87C      -0.254400
      4 C13          3.5090     0.0150     1.2760 c3         1 87C       0.060800
      5 C14          4.1370    -0.4050    -0.0520 c3         1 87C      -0.032400
      6 C15          3.5020     0.4300    -1.1710 c3         1 87C      -0.030400
      7 C16          2.0470    -0.0070    -1.3320 c3         1 87C       0.031800
      8 C17          1.2610    -0.0130     2.3800 c          1 87C       0.606700
      9 C09         -0.6900    -0.0070     1.1050 cd         1 87C       0.332800
     10 N08         -0.0870    -0.0160     2.3100 n          1 87C       0.080700
     11 C07         -0.8880    -0.0290     3.5360 c3         1 87C      -0.080000
     12 C06         -1.1600    -1.4540     3.9430 c          1 87C       0.585100
     13 O19         -0.7290    -2.3650     3.2790 o          1 87C      -0.513100
     14 C05         -1.9700    -1.7410     5.1810 c3         1 87C      -0.111400
     15 C04         -2.0970    -3.2540     5.3670 c3         1 87C       0.125500
     16 C20         -3.0230    -3.5470     6.5500 c3         1 87C       0.153100
     17 O22         -2.4890    -2.9510     7.7330 oh         1 87C      -0.587800
     18 C21         -3.1310    -5.0620     6.7450 c3         1 87C      -0.044400
     19 C01         -1.7320    -5.6410     6.9670 c3         1 87C      -0.061400
     20 C02         -0.8430    -5.2880     5.7730 c3         1 87C       0.149800
     21 N03         -0.7710    -3.8280     5.6280 n7         1 87C      -0.564200
     22 H1           3.8390     1.0170     1.5250 hc         1 87C       0.030700
     23 H2           3.8220    -0.6730     2.0510 hc         1 87C       0.030700
     24 H3           3.9460    -1.4560    -0.2290 hc         1 87C       0.018200
     25 H4           5.2050    -0.2230    -0.0230 hc         1 87C       0.018200
     26 H5           3.5280     1.4750    -0.8890 hc         1 87C       0.018700
     27 H6           4.0320     0.2390    -2.0970 hc         1 87C       0.018700
     28 H7           1.5470     0.6940    -1.9900 hc         1 87C       0.032200
     29 H8           2.0300    -1.0160    -1.7260 hc         1 87C       0.032200
     30 H9          -1.7720    -0.0090     1.0550 h5         1 87C       0.005800
     31 H10         -1.8270     0.4820     3.3600 h1         1 87C       0.059200
     32 H11         -0.3460     0.4760     4.3270 h1         1 87C       0.059200
     33 H12         -1.4770    -1.3110     6.0440 hc         1 87C       0.040200
     34 H13         -2.9570    -1.3060     5.0750 hc         1 87C       0.040200
     35 H14         -2.5100    -3.7000     4.4700 h1         1 87C       0.052700
     36 H15         -4.0060    -3.1400     6.3470 h1         1 87C       0.000700
     37 H16         -3.1910    -2.5930     8.2500 ho         1 87C       0.392000
     38 H17         -3.7500    -5.2710     7.6100 hc         1 87C       0.019700
     39 H18         -3.5710    -5.5090     5.8620 hc         1 87C       0.019700
     40 H19         -1.7980    -6.7190     7.0600 hc         1 87C       0.024200
     41 H20         -1.3060    -5.2200     7.8700 hc         1 87C       0.024200
     42 H21         -1.2640    -5.7180     4.8720 h1         1 87C       0.023700
     43 H22          0.1520    -5.6820     5.9360 h1         1 87C       0.023700
     44 H23         -0.3940    -3.4280     6.4650 hn         1 87C       0.267800
     45 O18          1.8240    -0.0210     3.4620 o          1 87C      -0.690500
@<TRIPOS>BOND
     1     1     2 1   
     2     1     9 2   
     3     2     3 2   
     4     2     7 1   
     5     3     4 1   
     6     3     8 1   
     7     4     5 1   
     8     4    22 1   
     9     4    23 1   
    10     5     6 1   
    11     5    24 1   
    12     5    25 1   
    13     6     7 1   
    14     6    26 1   
    15     6    27 1   
    16     7    28 1   
    17     7    29 1   
    18     8    10 1   
    19     8    45 2   
    20     9    10 1   
    21     9    30 1   
    22    10    11 1   
    23    11    12 1   
    24    11    31 1   
    25    11    32 1   
    26    12    13 2   
    27    12    14 1   
    28    14    15 1   
    29    14    33 1   
    30    14    34 1   
    31    15    16 1   
    32    15    21 1   
    33    15    35 1   
    34    16    17 1   
    35    16    18 1   
    36    16    36 1   
    37    17    37 1   
    38    18    19 1   
    39    18    38 1   
    40    18    39 1   
    41    19    20 1   
    42    19    40 1   
    43    19    41 1   
    44    20    21 1   
    45    20    42 1   
    46    20    43 1   
    47    21    44 1   
@<TRIPOS>SUBSTRUCTURE
     1 87C         1 TEMP              0 ****  ****    0 ROOT
