@<TRIPOS>MOLECULE
molecule
   48    50     1     0     0
SMALL
bcc


@<TRIPOS>ATOM
      1 C4           0.0000     0.0000     0.0000 cc         1 87D      -0.384200
      2 C5           1.4000     0.0000     0.0000 c          1 87D       0.702700
      3 C7          -0.6200     0.0010     3.7200 ca         1 87D      -0.047800
      4 C10         -0.6720    -1.1670     4.4860 ca         1 87D       0.141100
      5 C13         -1.8610     1.1620     5.4220 ca         1 87D       0.090600
      6 C17         -0.1770    -3.4220     4.8010 ca         1 87D       0.093100
      7 C20         -0.3460    -5.6960     6.3670 ca         1 87D      -0.126000
      8 C21         -1.3280    -5.4280     5.4300 ca         1 87D      -0.118500
      9 C22         -1.2450    -4.2940     4.6470 ca         1 87D      -0.135500
     10 C24         -2.7060    -0.0000    -0.0230 c3         1 87D       0.124700
     11 C28         -0.4700     3.1540     7.5980 c3         1 87D      -0.244300
     12 C19          0.7200    -4.8300     6.5220 ca         1 87D      -0.118500
     13 C12         -1.9090    -0.0030     6.1790 ca         1 87D      -0.120000
     14 C18          0.8060    -3.6930     5.7420 ca         1 87D      -0.135500
     15 C11         -1.3160    -1.1610     5.7120 ca         1 87D      -0.193000
     16 C14         -1.2170     1.1660     4.1940 ca         1 87D      -0.093000
     17 C1           1.4350     0.0000     2.3540 cc         1 87D       0.049600
     18 C2           0.0740     0.0010     2.4090 cd         1 87D      -0.143200
     19 C3          -0.6740     0.0000     1.2040 cd         1 87D       0.227100
     20 N6           2.0810     0.0000     1.1600 n          1 87D      -0.325000
     21 N16         -2.4620     2.3310     5.9000 nu         1 87D      -0.768500
     22 O9           2.0070    -0.0010    -1.0600 o          1 87D      -0.662500
     23 O26         -2.5670     1.6290     8.2280 o          1 87D      -0.628300
     24 O27         -3.0060     3.9820     7.6030 o          1 87D      -0.628300
     25 O15         -0.0910    -2.3080     4.0280 os         1 87D      -0.244200
     26 O23         -2.0290     0.0010     1.2350 os         1 87D      -0.312900
     27 S25         -2.2420     2.7910     7.4760 s6         1 87D       1.326900
     28 H30         -0.5480    -0.0000    -0.9350 ha         1 87D       0.168000
     29 H31          3.8990    -0.8840     0.6180 h1         1 87D       0.055700
     30 H32          3.8980     0.8850     0.6160 h1         1 87D       0.055700
     31 H33          3.9250     0.0030     2.1490 h1         1 87D       0.055700
     32 H40         -0.4120    -6.5870     6.9800 ha         1 87D       0.135000
     33 H41         -2.1620    -6.1090     5.3100 ha         1 87D       0.136500
     34 H42         -2.0150    -4.0840     3.9140 ha         1 87D       0.144000
     35 H43         -3.7770    -0.0020     0.1440 h1         1 87D       0.047700
     36 H44         -2.4300     0.8850    -0.5830 h1         1 87D       0.047700
     37 H45         -2.4270    -0.8840    -0.5830 h1         1 87D       0.047700
     38 H48         -0.1360     3.6350     6.6860 h1         1 87D       0.100033
     39 H47         -0.2940     3.8140     8.4390 h1         1 87D       0.100033
     40 H46          0.0790     2.2320     7.7420 h1         1 87D       0.100033
     41 H39          1.4880    -5.0420     7.2560 ha         1 87D       0.136500
     42 H35         -2.4120    -0.0030     7.1380 ha         1 87D       0.187000
     43 H38          1.6420    -3.0150     5.8640 ha         1 87D       0.144000
     44 H34         -1.3570    -2.0660     6.3060 ha         1 87D       0.154000
     45 H36         -1.1800     2.0740     3.6040 ha         1 87D       0.145000
     46 H29          2.0090     0.0000     3.2730 h4         1 87D       0.162000
     47 H37         -3.0590     2.8660     5.3010 hn         1 87D       0.466800
     48 C8           3.5460     0.0010     1.1340 c3         1 87D       0.084300
@<TRIPOS>BOND
     1     1     2 1
     2     1    19 2
     3     2    20 1
     4     2    22 2
     5     3     4 ar
     6     3    16 ar
     7     3    18 1
     8    48    20 1
     9     4    15 ar
    10     4    25 1
    11     5    13 ar
    12     5    16 ar
    13     5    21 1
    14     6     9 ar
    15     6    14 ar
    16     6    25 1
    17     7     8 ar
    18     7    12 ar
    19     8     9 ar
    20    10    26 1
    21    11    27 1
    22    12    14 ar
    23    13    15 ar
    24    17    18 2
    25    17    20 1
    26    18    19 1
    27    19    26 1
    28    21    27 1
    29    23    27 2
    30    24    27 2
    31     1    28 1
    32    48    29 1
    33    48    30 1
    34    48    31 1
    35     7    32 1
    36     8    33 1
    37     9    34 1
    38    10    35 1
    39    10    36 1
    40    10    37 1
    41    11    38 1
    42    11    39 1
    43    11    40 1
    44    12    41 1
    45    13    42 1
    46    14    43 1
    47    15    44 1
    48    16    45 1
    49    17    46 1
    50    21    47 1
@<TRIPOS>SUBSTRUCTURE
     1 87D         1 TEMP              0 ****  ****    0 ROOT
