@<TRIPOS>MOLECULE
molecule
   40    42     1     0     0
SMALL
bcc


@<TRIPOS>ATOM
      1 C1           0.0000     0.0000     0.0000 ca         1 87F      -0.120000
      2 C2           1.3770     0.0000     0.0000 ca         1 87F      -0.094000
      3 C3           2.0890     0.0000     1.1920 ca         1 87F      -0.154000
      4 C7          -2.6880     0.0020     2.3900 cc         1 87F       0.506800
      5 C6          -0.6900    -0.0010     1.2140 ca         1 87F       0.191400
      6 O2          -5.7630    -1.8780     8.5100 o          1 87F      -0.513100
      7 C4           1.4310    -0.0010     2.4020 ca         1 87F      -0.053000
      8 C5           0.0370    -0.0060     2.4250 ca         1 87F      -0.203600
      9 C8          -0.7200    -0.0060     3.6850 c          1 87F       0.706100
     10 N1          -2.0460     0.0040     1.2610 nd         1 87F      -0.649100
     11 N2          -2.0710    -0.0020     3.6010 n          1 87F      -0.385300
     12 C9          -2.8740    -0.0020     4.8260 c3         1 87F       0.088000
     13 C10         -3.1610    -1.4440     5.2490 c3         1 87F      -0.099400
     14 C11         -3.9990    -1.4430     6.5270 c3         1 87F      -0.066400
     15 C12         -4.2850    -2.8860     6.9510 c3         1 87F       0.070500
     16 N3          -3.0280    -3.5460     7.3360 n7         1 87F      -0.797200
     17 C16         -3.2750    -4.9020     7.8410 c3         1 87F       0.148800
     18 C13         -5.2170    -2.8910     8.1430 c          1 87F       0.528100
     19 C14         -5.4430    -4.2040     8.8630 c3         1 87F      -0.181400
     20 C15         -4.0740    -4.8350     9.1440 c3         1 87F      -0.119400
     21 H1          -0.5450    -0.0000    -0.9360 ha         1 87F       0.149000
     22 H2           1.9120     0.0010    -0.9420 ha         1 87F       0.134000
     23 H3           3.1720     0.0000     1.1700 ha         1 87F       0.135000
     24 H4          -3.7710     0.0060     2.3660 h5         1 87F       0.054800
     25 H5           1.9920    -0.0010     3.3280 ha         1 87F       0.154000
     26 H6          -3.8090     0.5140     4.6440 h1         1 87F       0.068200
     27 H7          -2.3300     0.5040     5.6140 h1         1 87F       0.068200
     28 H8          -2.2260    -1.9600     5.4300 hc         1 87F       0.062200
     29 H9          -3.7050    -1.9500     4.4600 hc         1 87F       0.062200
     30 H10         -4.9350    -0.9280     6.3460 hc         1 87F       0.057200
     31 H11         -3.4560    -0.9370     7.3160 hc         1 87F       0.057200
     32 H12         -4.7420    -3.4270     6.1310 h1         1 87F       0.085700
     33 H13         -2.5710    -3.0050     8.0430 hn         1 87F       0.362800
     34 H15         -2.3280    -5.3930     8.0270 h1         1 87F       0.061200
     35 H16         -3.8380    -5.4620     7.1040 h1         1 87F       0.061200
     36 H17         -5.9590    -4.0230     9.7980 hc         1 87F       0.071200
     37 H18         -6.0280    -4.8660     8.2370 hc         1 87F       0.071200
     38 H19         -3.5390    -4.2300     9.8650 hc         1 87F       0.053200
     39 H20         -4.2120    -5.8360     9.5350 hc         1 87F       0.053200
     40 O1          -0.1540    -0.0120     4.7630 o          1 87F      -0.624500
@<TRIPOS>BOND
     1     2     3 ar
     2     2     1 ar
     3     3     7 ar
     4     1     5 ar
     5     7     8 ar
     6     5     8 ar
     7     5    10 1
     8     8     9 1
     9    10     4 2
    10     9    40 2
    11     9    11 1
    12     4    11 1
    13    11    12 1
    14    12    13 1
    15    13    14 1
    16    14    15 1
    17    16    15 1
    18    16    17 1
    19    15    18 1
    20    17    20 1
    21    18     6 2
    22    18    19 1
    23    19    20 1
    24     1    21 1
    25     2    22 1
    26     3    23 1
    27     4    24 1
    28     7    25 1
    29    12    26 1
    30    12    27 1
    31    13    28 1
    32    13    29 1
    33    14    30 1
    34    14    31 1
    35    15    32 1
    36    16    33 1
    37    17    34 1
    38    17    35 1
    39    19    36 1
    40    19    37 1
    41    20    38 1
    42    20    39 1
@<TRIPOS>SUBSTRUCTURE
     1 87F         1 TEMP              0 ****  ****    0 ROOT
