@<TRIPOS>MOLECULE
molecule
   51    54     1     0     0
SMALL
bcc


@<TRIPOS>ATOM
      1 C4           0.0000     0.0000     0.0000 ca         1 87G      -0.176000
      2 C5           6.1160    -2.4810     1.3300 ca         1 87G      -0.095000
      3 C6          -0.0050     0.0010     2.3990 ca         1 87G      -0.205000
      4 C7           7.0180     0.3100    -0.0470 cc         1 87G      -0.093300
      5 C8           5.4690    -1.2530     1.2250 ca         1 87G      -0.019000
      6 C10          6.3620     1.1080     1.9690 cd         1 87G      -0.040800
      7 C13          2.0750     0.0000     1.2010 ca         1 87G       0.044100
      8 C15          1.3790     0.0010     2.4030 ca         1 87G       0.150900
      9 C17          5.8100     1.4040     3.2850 cd         1 87G      -0.152200
     10 C20          7.5540    -5.1490     5.3990 c3         1 87G      -0.072100
     11 C21          8.4720     2.2010    -0.8110 c3         1 87G       0.034600
     12 C22          7.2430    -4.5100     4.0440 c3         1 87G      -0.222600
     13 C1           3.9900    -3.5760     1.5830 ca         1 87G      -0.071000
     14 C2           3.3420    -2.3580     1.4810 ca         1 87G      -0.206000
     15 C3           1.3820     0.0000     0.0000 ca         1 87G      -0.084000
     16 C9           6.2550    -0.0100     1.0340 cd         1 87G      -0.128000
     17 C11          5.3750    -3.6400     1.5080 ca         1 87G       0.078600
     18 C12          4.0740    -1.1950     1.3010 ca         1 87G       0.149100
     19 C14         -0.6930    -0.0000     1.1980 ca         1 87G       0.162900
     20 C16          7.2070     2.0450     1.3620 cc         1 87G      -0.184900
     21 C18          6.1310     2.5720     3.8770 cc         1 87G      -0.045400
     22 C19          7.4900     3.2410     2.0500 c          1 87G       0.729100
     23 N23          7.5860     1.5310     0.1430 na         1 87G      -0.018100
     24 N24          6.9560     3.4700     3.2630 ns         1 87G      -0.421100
     25 O26          8.2240     4.0730     1.5430 o          1 87G      -0.677500
     26 O27          6.8330    -6.8360     2.8040 o          1 87G      -0.628300
     27 O28          4.8470    -5.6020     3.6140 o          1 87G      -0.628300
     28 O29          3.4340     0.0000     1.2020 os         1 87G      -0.221200
     29 F30         -2.0440    -0.0000     1.1960 f          1 87G      -0.128900
     30 F31          2.0520     0.0010     3.5750 f          1 87G      -0.120900
     31 S32          6.1670    -5.6130     3.0870 s6         1 87G       1.326900
     32 H4          -0.5410    -0.0000    -0.9380 ha         1 87G       0.156000
     33 H5           7.1970    -2.5310     1.2710 ha         1 87G       0.145000
     34 H6          -0.5490     0.0010     3.3360 ha         1 87G       0.167000
     35 H7           7.1530    -0.3110    -0.9240 h4         1 87G       0.173000
     36 H17          5.1540     0.6980     3.7790 ha         1 87G       0.155000
     37 H8           8.0730    -6.0870     5.2460 hc         1 87G       0.050367
     38 H9           8.1790    -4.4810     5.9790 hc         1 87G       0.050367
     39 H10          6.6290    -5.3320     5.9330 hc         1 87G       0.050367
     40 H11          8.0350     3.1470    -1.1080 h1         1 87G       0.059367
     41 H12          9.4350     2.3790    -0.3470 h1         1 87G       0.059367
     42 H13          8.6030     1.5740    -1.6850 h1         1 87G       0.059367
     43 H14          8.1660    -4.3470     3.5010 h1         1 87G       0.100200
     44 H15          6.7420    -3.5620     4.1980 h1         1 87G       0.100200
     45 H1           3.4140    -4.4830     1.7230 ha         1 87G       0.160000
     46 H2           2.2620    -2.3140     1.5400 ha         1 87G       0.147000
     47 H3           1.9230    -0.0000    -0.9380 ha         1 87G       0.159000
     48 H18          5.7260     2.8030     4.8550 h4         1 87G       0.153000
     49 H24          7.1730     4.3270     3.7330 hn         1 87G       0.338500
     50 H25          6.3650    -5.3320     0.7890 hn         1 87G       0.462800
     51 N25          6.0250    -4.8750     1.6120 nu         1 87G      -0.780500
@<TRIPOS>BOND
     1     1    15 ar  
     2     1    19 ar  
     3     2     5 ar  
     4     2    17 ar  
     5     3     8 ar  
     6     3    19 ar  
     7     4    16 2   
     8     4    23 1   
     9     5    16 1   
    10     5    18 ar  
    11     6     9 1   
    12     6    16 1   
    13     6    20 2   
    14     7     8 ar  
    15     7    15 ar  
    16     7    28 1   
    17     8    30 1   
    18     9    21 2   
    19    10    12 1   
    20    11    23 1   
    21    12    31 1   
    22    13    14 ar  
    23    13    17 ar  
    24    14    18 ar  
    25    17    51 1   
    26    18    28 1   
    27    19    29 1   
    28    20    22 1   
    29    20    23 1   
    30    21    24 1   
    31    22    24 1   
    32    22    25 2   
    33    51    31 1   
    34    26    31 2   
    35    27    31 2   
    36     1    32 1   
    37     2    33 1   
    38     3    34 1   
    39     4    35 1   
    40     9    36 1   
    41    10    37 1   
    42    10    38 1   
    43    10    39 1   
    44    11    40 1   
    45    11    41 1   
    46    11    42 1   
    47    12    43 1   
    48    12    44 1   
    49    13    45 1   
    50    14    46 1   
    51    15    47 1   
    52    21    48 1   
    53    24    49 1   
    54    51    50 1   
@<TRIPOS>SUBSTRUCTURE
     1 87G         1 TEMP              0 ****  ****    0 ROOT
