@<TRIPOS>MOLECULE
87G
   51    54     1     0     0
SMALL
bcc


@<TRIPOS>ATOM
      1 C4           0.0000     0.0000     0.0000 ca         1 87G      -0.133000
      2 C5           6.1160    -2.4810     1.3300 ca         1 87G      -0.080000
      3 C6          -0.0050     0.0010     2.3990 ca         1 87G      -0.158000
      4 C7           7.0180     0.3100    -0.0470 cc         1 87G      -0.278300
      5 C8           5.4690    -1.2530     1.2250 ca         1 87G      -0.011000
      6 C10          6.3620     1.1080     1.9690 cd         1 87G      -0.049800
      7 C13          2.0750     0.0000     1.2010 ca         1 87G       0.062100
      8 C15          1.3790     0.0010     2.4030 ca         1 87G       0.118900
      9 C17          5.8100     1.4040     3.2850 cd         1 87G      -0.103200
     10 C20          7.5540    -5.1490     5.3990 c3         1 87G       0.040900
     11 C21          8.4720     2.2010    -0.8110 c3         1 87G      -0.030400
     12 C22          7.2430    -4.5100     4.0440 c3         1 87G      -0.009600
     13 C1           3.9900    -3.5760     1.5830 ca         1 87G      -0.043000
     14 C2           3.3420    -2.3580     1.4810 ca         1 87G      -0.193000
     15 C3           1.3820     0.0000     0.0000 ca         1 87G      -0.064000
     16 C9           6.2550    -0.0100     1.0340 cd         1 87G      -0.108000
     17 C11          5.3750    -3.6400     1.5080 ca         1 87G       0.004600
     18 C12          4.0740    -1.1950     1.3010 ca         1 87G       0.147100
     19 C14         -0.6930    -0.0000     1.1980 ca         1 87G       0.129900
     20 C16          7.2070     2.0450     1.3620 cc         1 87G      -0.374900
     21 C18          6.1310     2.5720     3.8770 cc         1 87G      -0.192400
     22 C19          7.4900     3.2410     2.0500 c          1 87G       0.639100
     23 N23          7.5860     1.5310     0.1430 na         1 87G       0.502900
     24 N24          6.9560     3.4700     3.2630 ns         1 87G       0.064900
     25 O26          8.2240     4.0730     1.5430 o          1 87G      -0.732500
     26 O27          6.8330    -6.8360     2.8040 o          1 87G      -0.583300
     27 O28          4.8470    -5.6020     3.6140 o          1 87G      -0.583300
     28 O29          3.4340     0.0000     1.2020 os         1 87G      -0.197200
     29 F30         -2.0440    -0.0000     1.1960 f          1 87G      -0.120900
     30 F31          2.0520     0.0010     3.5750 f          1 87G      -0.114900
     31 S32          6.1670    -5.6130     3.0870 s6         1 87G       0.948900
     32 H4          -0.5410    -0.0000    -0.9380 ha         1 87G       0.126000
     33 H5           7.1970    -2.5310     1.2710 ha         1 87G       0.113000
     34 H6          -0.5490     0.0010     3.3360 ha         1 87G       0.139000
     35 H7           7.1530    -0.3110    -0.9240 h4         1 87G       0.148000
     36 H17          5.1540     0.6980     3.7790 ha         1 87G       0.124000
     37 H8           8.0730    -6.0870     5.2460 hc         1 87G       0.012700
     38 H9           8.1790    -4.4810     5.9790 hc         1 87G       0.012700
     39 H10          6.6290    -5.3320     5.9330 hc         1 87G       0.012700
     40 H11          8.0350     3.1470    -1.1080 h1         1 87G       0.030367
     41 H12          9.4350     2.3790    -0.3470 h1         1 87G       0.030367
     42 H13          8.6030     1.5740    -1.6850 h1         1 87G       0.030367
     43 H14          8.1660    -4.3470     3.5010 h1         1 87G       0.067700
     44 H15          6.7420    -3.5620     4.1980 h1         1 87G       0.067700
     45 H1           3.4140    -4.4830     1.7230 ha         1 87G       0.130000
     46 H2           2.2620    -2.3140     1.5400 ha         1 87G       0.124000
     47 H3           1.9230    -0.0000    -0.9380 ha         1 87G       0.125000
     48 H18          5.7260     2.8030     4.8550 h4         1 87G       0.125000
     49 H24          7.1730     4.3270     3.7330 hn         1 87G       0.168500
     50 H25          6.3650    -5.3320     0.7890 hn         1 87G       0.348800
     51 N25          6.0250    -4.8750     1.6120 nu         1 87G      -0.428500
@<TRIPOS>BOND
     1     1    15 ar  
     2     1    19 ar  
     3     1    32 1   
     4     2     5 ar  
     5     2    17 ar  
     6     2    33 1   
     7     3     8 ar  
     8     3    19 ar  
     9     3    34 1   
    10     4    16 2   
    11     4    23 1   
    12     4    35 1   
    13     5    16 1   
    14     5    18 ar  
    15     6     9 1   
    16     6    16 1   
    17     6    20 2   
    18     7     8 ar  
    19     7    15 ar  
    20     7    28 1   
    21     8    30 1   
    22     9    21 2   
    23     9    36 1   
    24    10    12 1   
    25    10    37 1   
    26    10    38 1   
    27    10    39 1   
    28    11    23 1   
    29    11    40 1   
    30    11    41 1   
    31    11    42 1   
    32    12    31 1   
    33    12    43 1   
    34    12    44 1   
    35    13    14 ar  
    36    13    17 ar  
    37    13    45 1   
    38    14    18 ar  
    39    14    46 1   
    40    15    47 1   
    41    17    51 1   
    42    18    28 1   
    43    19    29 1   
    44    20    22 1   
    45    20    23 1   
    46    21    24 1   
    47    21    48 1   
    48    22    24 1   
    49    22    25 2   
    50    24    49 1   
    51    26    31 2   
    52    27    31 2   
    53    31    51 1   
    54    50    51 1   
@<TRIPOS>SUBSTRUCTURE
     1 87G         1 TEMP              0 ****  ****    0 ROOT
