@<TRIPOS>MOLECULE
molecule
   63    67     1     0     0
SMALL
bcc


@<TRIPOS>ATOM
      1 C07          0.0000     0.0000     0.0000 ca         1 87J      -0.124000
      2 C15          0.0110     0.0010     2.4110 ca         1 87J      -0.124000
      3 C21         -7.0480    -0.8940     1.6530 ca         1 87J      -0.091000
      4 C39         -7.9730    -4.5260     0.7350 ca         1 87J      -0.065000
      5 C20         -6.3310     0.1540     1.1620 ca         1 87J      -0.178300
      6 C08          1.3800     0.0000     0.0000 ca         1 87J      -0.032000
      7 C14          1.3900    -0.0000     2.3990 ca         1 87J      -0.032000
      8 C38         -8.9510    -4.8620    -0.1880 ca         1 87J      -0.210300
      9 C41         -5.0520    -2.0980     2.2060 ca         1 87J      -0.070000
     10 C31         -9.5150    -2.9670     1.6800 ca         1 87J       0.428200
     11 C29         -7.8930    -1.5010     4.5340 cc         1 87J       0.340200
     12 C27         -9.1340    -2.7260     5.8040 cd         1 87J       0.411400
     13 C18         -4.2820    -1.0350     1.7080 ca         1 87J      -0.188300
     14 C06         -0.6940     0.0000     1.2080 cp         1 87J       0.020000
     15 C05         -2.1770     0.0010     1.2150 cp         1 87J      -0.176300
     16 C22         -6.4110    -2.0180     2.1740 ca         1 87J      -0.123300
     17 C30         -8.2660    -3.5590     1.6850 ca         1 87J      -0.184600
     18 C19         -4.9270     0.1090     1.1760 ca         1 87J       0.479600
     19 C09          2.0750     0.0000     1.1960 ca         1 87J      -0.294500
     20 C16         -2.8730    -1.0840     1.7240 ca         1 87J       0.110400
     21 C33        -10.1770    -4.2270    -0.1310 ca         1 87J       0.336600
     22 C24         -7.9290    -2.7270     3.9760 cd         1 87J      -0.302900
     23 C03         -2.8900     1.1040     0.7040 ca         1 87J       0.694600
     24 C01         -2.9760     3.2550    -0.2990 c3         1 87J       0.135700
     25 C11          4.2890     1.7570     1.1860 c3         1 87J      -0.226300
     26 C23         -7.2360    -3.1590     2.7110 c3         1 87J       0.343700
     27 C34        -11.2480    -4.5860    -1.1290 c3         1 87J       0.585600
     28 N28         -8.6370    -1.5300     5.6490 nc         1 87J      -0.696000
     29 N32        -10.4210    -3.3120     0.7870 nb         1 87J      -0.649000
     30 N04         -4.2040     1.1290     0.6980 nb         1 87J      -0.773000
     31 N25         -8.7170    -3.5040     4.7820 na         1 87J      -0.173900
     32 O12          4.1920    -0.6060     2.4250 o          1 87J      -0.617800
     33 O13          4.1810    -0.6050    -0.0500 o          1 87J      -0.617800
     34 O40         -6.3850    -4.2720     2.9900 oh         1 87J      -0.602800
     35 O02         -2.2060     2.1630     0.2070 os         1 87J      -0.432100
     36 F35        -12.0270    -5.6320    -0.6230 f          1 87J      -0.214967
     37 F36        -12.0600    -3.4700    -1.3620 f          1 87J      -0.214967
     38 F37        -10.6520    -4.9860    -2.3300 f          1 87J      -0.214967
     39 S10          3.8360    -0.0000     1.1890 sy         1 87J       1.190300
     40 Cl17        -2.0360    -2.4630     2.3650 cl         1 87J      -0.064400
     41 H071        -0.5430    -0.0000    -0.9380 ha         1 87J       0.143500
     42 H151        -0.5240     0.0010     3.3540 ha         1 87J       0.143500
     43 H211        -8.1300    -0.8530     1.6380 ha         1 87J       0.146000
     44 H391        -7.0020    -5.0070     0.7150 ha         1 87J       0.166000
     45 H201        -6.8420     1.0200     0.7600 ha         1 87J       0.157000
     46 H081         1.9200     0.0000    -0.9390 ha         1 87J       0.153000
     47 H141         1.9390     0.0000     3.3330 ha         1 87J       0.153000
     48 H381        -8.7570    -5.6130    -0.9440 ha         1 87J       0.158000
     49 H411        -4.5680    -2.9770     2.6140 ha         1 87J       0.154000
     50 H311        -9.7520    -2.2110     2.4190 h4         1 87J       0.046100
     51 H291        -7.3570    -0.6420     4.1490 h4         1 87J       0.051100
     52 H271        -9.7750    -3.0430     6.6180 h5         1 87J       0.070100
     53 H263        -9.2720    -5.3790     5.5280 h1         1 87J       0.062033
     54 H262        -8.2020    -5.4210     4.1200 h1         1 87J       0.062033
     55 H261        -9.9070    -4.9950     3.9220 h1         1 87J       0.062033
     56 H011        -2.3110     4.0160    -0.6890 h1         1 87J       0.051033
     57 H012        -3.5760     3.6740     0.5000 h1         1 87J       0.051033
     58 H013        -3.6260     2.9020    -1.0910 h1         1 87J       0.051033
     59 H401        -5.9130    -4.1140     3.7910 ho         1 87J       0.423000
     60 H3           4.0740     2.1830     0.2140 h1         1 87J       0.098700
     61 H4           3.7160     2.2780     1.9440 h1         1 87J       0.098700
     62 H5           5.3460     1.8570     1.3990 h1         1 87J       0.098700
     63 C26         -9.0460    -4.9170     4.5740 c3         1 87J       0.021600
@<TRIPOS>BOND
     1     1     6 ar
     2     1    14 ar
     3     2     7 ar
     4     2    14 ar
     5     3     5 ar
     6     3    16 ar
     7     4     8 ar
     8     4    17 ar
     9     5    18 ar
    10     6    19 ar
    11     7    19 ar
    12     8    21 ar
    13     9    13 ar
    14     9    16 ar
    15    10    17 ar
    16    10    29 ar
    17    11    22 2
    18    11    28 1
    19    12    28 2
    20    12    31 1
    21    13    18 ar
    22    13    20 ar
    23    14    15 1
    24    15    20 ar
    25    15    23 ar
    26    16    26 1
    27    17    26 1
    28    18    30 ar
    29    19    39 1
    30    20    40 1
    31    21    27 1
    32    21    29 ar
    33    22    26 1
    34    22    31 1
    35    23    30 ar
    36    23    35 1
    37    63    31 1
    38    24    35 1
    39    25    39 1
    40    26    34 1
    41    27    36 1
    42    27    37 1
    43    27    38 1
    44    32    39 2
    45    33    39 2
    46     1    41 1
    47     2    42 1
    48     3    43 1
    49     4    44 1
    50     5    45 1
    51     6    46 1
    52     7    47 1
    53     8    48 1
    54     9    49 1
    55    10    50 1
    56    11    51 1
    57    12    52 1
    58    63    53 1
    59    63    54 1
    60    63    55 1
    61    24    56 1
    62    24    57 1
    63    24    58 1
    64    34    59 1
    65    25    60 1
    66    25    61 1
    67    25    62 1
@<TRIPOS>SUBSTRUCTURE
     1 87J         1 TEMP              0 ****  ****    0 ROOT
