@<TRIPOS>MOLECULE
molecule
   25    26     1     0     0
SMALL
bcc


@<TRIPOS>ATOM
      1 CAH          0.0000     0.0000     0.0000 ca         1 87L      -0.099000
      2 CAD          1.3820     0.0000     0.0000 ca         1 87L      -0.144500
      3 CAC          2.0740     0.0000     1.1970 ca         1 87L      -0.146000
      4 CAE          1.3820     0.0010     2.3950 ca         1 87L      -0.144500
      5 CAI          0.0010     0.0010     2.3950 ca         1 87L      -0.099000
      6 CAM         -0.6900     0.0070     1.1970 ca         1 87L      -0.047300
      7 CA          -2.1980     0.0080     1.1980 c3         1 87L      -0.022700
      8 C           -2.7000     1.2410     0.4930 c          1 87L       0.880600
      9 O           -1.9150     2.0380     0.0370 o          1 87L      -0.818300
     10 OXT         -4.0200     1.4540     0.3710 o          1 87L      -0.818300
     11 N           -2.6870    -1.1850     0.5020 na         1 87L       0.005900
     12 CAJ         -3.4740    -2.1560     1.0460 cc         1 87L      -0.144300
     13 CAF         -3.7130    -3.0860     0.0980 cc         1 87L      -0.239000
     14 CAG         -3.0480    -2.6740    -1.0730 cc         1 87L      -0.239000
     15 CAK         -2.4340    -1.5050    -0.8000 cd         1 87L      -0.144300
     16 H1          -0.5420     0.0020    -0.9380 ha         1 87L       0.133500
     17 H2           1.9240    -0.0030    -0.9380 ha         1 87L       0.110500
     18 H3           3.1570    -0.0000     1.1980 ha         1 87L       0.106000
     19 H4           1.9240    -0.0010     3.3330 ha         1 87L       0.110500
     20 H5          -0.5410     0.0040     3.3330 ha         1 87L       0.133500
     21 H6          -2.5590     0.0030     2.2190 h1         1 87L       0.066700
     22 H8          -3.8440    -2.1780     2.0640 h4         1 87L       0.156500
     23 H9          -4.3040    -3.9860     0.2170 ha         1 87L       0.122000
     24 H10         -3.0380    -3.1970    -2.0220 ha         1 87L       0.122000
     25 H11         -1.8360    -0.9250    -1.4920 h4         1 87L       0.156500
@<TRIPOS>BOND
     1    14    15 2   
     2    14    13 1   
     3    15    11 1   
     4    13    12 2   
     5    11    12 1   
     6    11     7 1   
     7     7     8 1   
     8     7     6 1   
     9     8     9 1   
    10     8    10 1   
    11     5     6 ar  
    12     5     4 ar  
    13     6     1 ar  
    14     4     3 ar  
    15     1     2 ar  
    16     3     2 ar  
    17     1    16 1   
    18     2    17 1   
    19     3    18 1   
    20     4    19 1   
    21     5    20 1   
    22     7    21 1   
    23    12    22 1   
    24    13    23 1   
    25    14    24 1   
    26    15    25 1   
@<TRIPOS>SUBSTRUCTURE
     1 87L         1 TEMP              0 ****  ****    0 ROOT
