@<TRIPOS>MOLECULE
87M
   50    53     1     0     0
SMALL
bcc


@<TRIPOS>ATOM
      1 C4           0.0000     0.0000     0.0000 ca         1 87M      -0.035000
      2 C5           4.6250    -1.0370    -0.5930 ca         1 87M      -0.116000
      3 C6           4.1740     1.3220    -0.6320 ca         1 87M      -0.116000
      4 C7           1.3820     0.0000     0.0000 ca         1 87M      -0.192000
      5 C8          -0.0190     0.0110     2.4050 ca         1 87M      -0.079000
      6 C10          2.9330     1.0170     4.1480 cc         1 87M      -0.218900
      7 C13          4.0730     0.0910    -0.0010 ca         1 87M       0.092100
      8 C15          2.1120     0.0060     3.6900 cd         1 87M      -0.227300
      9 C17          3.3740     2.3210     3.6600 cc         1 87M       0.497800
     10 C20         -3.1280    -3.9080     1.8110 c3         1 87M       0.040900
     11 C21         -2.4940    -2.5480     2.1120 c3         1 87M      -0.012600
     12 C1           5.3650     0.2970    -2.4380 ca         1 87M      -0.101000
     13 C2           5.2710    -0.9300    -1.8090 ca         1 87M      -0.084500
     14 C3           4.8210     1.4230    -1.8490 ca         1 87M      -0.084500
     15 C9           1.3780     0.0010     2.4110 ca         1 87M      -0.050000
     16 C11          3.4300     0.5680     5.4660 cc         1 87M      -0.228600
     17 C12         -0.7020     0.0060     1.1990 ca         1 87M       0.002600
     18 C14          2.0780     0.0000     1.1970 ca         1 87M       0.166100
     19 C16          2.8760    -0.6650     5.6850 cd         1 87M      -0.236600
     20 C18          4.3330     1.4660     6.1910 c          1 87M       0.644100
     21 C19          3.0980    -1.5200     6.9050 c3         1 87M       0.103200
     22 N22          4.1830     3.0410     4.3780 nd         1 87M      -0.557300
     23 N23          2.0980    -0.9910     4.6300 na         1 87M       0.443900
     24 N24          4.6630     2.6460     5.6250 ns         1 87M       0.086100
     25 N25         -2.1010     0.0070     1.1900 nu         1 87M      -0.428500
     26 O26          4.7770     1.1540     7.2810 o          1 87M      -0.695500
     27 O27         -2.3630    -1.7810    -0.4400 o          1 87M      -0.580300
     28 O28         -4.2960    -1.0030     0.8940 o          1 87M      -0.580300
     29 O29          3.4370    -0.0110     1.1950 os         1 87M      -0.208200
     30 S30         -2.9280    -1.3740     0.7990 s6         1 87M       0.950900
     31 H1          -0.5390    -0.0020    -0.9400 ha         1 87M       0.133000
     32 H2           4.5500    -1.9990    -0.1010 ha         1 87M       0.116000
     33 H3           3.7460     2.2040    -0.1710 ha         1 87M       0.116000
     34 H4           1.9230    -0.0030    -0.9390 ha         1 87M       0.134000
     35 H5          -0.5660     0.0160     3.3400 ha         1 87M       0.110000
     36 H6           3.0360     2.6830     2.6960 h4         1 87M      -0.004200
     37 H7          -2.7570    -4.2780     0.8620 hc         1 87M       0.013367
     38 H8          -2.8720    -4.6080     2.5960 hc         1 87M       0.013367
     39 H9          -4.2050    -3.8010     1.7590 hc         1 87M       0.013367
     40 H10         -2.8630    -2.1800     3.0620 h1         1 87M       0.063700
     41 H11         -1.4170    -2.6550     2.1600 h1         1 87M       0.063700
     42 H12          5.8720     0.3780    -3.3920 ha         1 87M       0.106000
     43 H13          5.7000    -1.8100    -2.2730 ha         1 87M       0.107500
     44 H14          4.8970     2.3840    -2.3430 ha         1 87M       0.107500
     45 H15          2.7650    -0.9850     7.7860 hc         1 87M       0.015367
     46 H16          2.5370    -2.4410     6.8080 hc         1 87M       0.015367
     47 H17          4.1530    -1.7480     6.9990 hc         1 87M       0.015367
     48 H18          1.5820    -1.8440     4.5470 hn         1 87M       0.109700
     49 H19          5.2830     3.2580     6.1170 hn         1 87M       0.199500
     50 H20         -2.6020     0.8490     1.3940 hn         1 87M       0.352800
@<TRIPOS>BOND
     1     1     4 ar  
     2     1    17 ar  
     3     1    31 1   
     4     2     7 ar  
     5     2    13 ar  
     6     2    32 1   
     7     3     7 ar  
     8     3    14 ar  
     9     3    33 1   
    10     4    18 ar  
    11     4    34 1   
    12     5    15 ar  
    13     5    17 ar  
    14     5    35 1   
    15     6     8 2   
    16     6     9 1   
    17     6    16 1   
    18     7    29 1   
    19     8    15 1   
    20     8    23 1   
    21     9    22 2   
    22     9    36 1   
    23    10    11 1   
    24    10    37 1   
    25    10    38 1   
    26    10    39 1   
    27    11    30 1   
    28    11    40 1   
    29    11    41 1   
    30    12    13 ar  
    31    12    14 ar  
    32    12    42 1   
    33    13    43 1   
    34    14    44 1   
    35    15    18 ar  
    36    16    19 2   
    37    16    20 1   
    38    17    25 1   
    39    18    29 1   
    40    19    21 1   
    41    19    23 1   
    42    20    24 1   
    43    20    26 2   
    44    21    45 1   
    45    21    46 1   
    46    21    47 1   
    47    22    24 1   
    48    23    48 1   
    49    24    49 1   
    50    25    30 1   
    51    25    50 1   
    52    27    30 2   
    53    28    30 2   
@<TRIPOS>SUBSTRUCTURE
     1 87M         1 TEMP              0 ****  ****    0 ROOT
