@<TRIPOS>MOLECULE
molecule
   53    52     1     0     0
SMALL
bcc


@<TRIPOS>ATOM
      1 P            0.0000     0.0000     0.0000 p5         1 87O       1.137900
      2 O1           1.6100     0.0000     0.0000 os         1 87O      -0.508500
      3 O2          -0.4940     0.0000     1.3960 o          1 87O      -0.888167
      4 C           17.4550     9.9120     6.9550 c3         1 87O      -0.092100
      5 O            1.5610     1.8090     1.2690 o          1 87O      -0.538000
      6 C1          15.9270     9.8460     6.9080 c3         1 87O      -0.084400
      7 C10          7.6480     3.5770     2.5100 c3         1 87O      -0.083400
      8 C11          6.1190     3.5120     2.4640 c3         1 87O      -0.081400
      9 C12          5.6860     2.3100     1.6210 c3         1 87O      -0.086400
     10 C13          4.1580     2.2460     1.5760 c3         1 87O      -0.070400
     11 C14          3.7240     1.0440     0.7330 c3         1 87O      -0.154400
     12 C15          2.2190     0.9790     0.6870 c          1 87O       0.668100
     13 C2          15.4930     8.6450     6.0660 c3         1 87O      -0.081400
     14 C3          13.9660     8.5800     6.0190 c3         1 87O      -0.082400
     15 C4          13.5320     7.3780     5.1770 c3         1 87O      -0.082400
     16 C5          12.0030     7.3120     5.1300 c3         1 87O      -0.082400
     17 C6          11.5700     6.1110     4.2880 c3         1 87O      -0.082400
     18 C7          10.0420     6.0460     4.2420 c3         1 87O      -0.082400
     19 C8           9.6080     4.8450     3.3990 c3         1 87O      -0.082400
     20 C9           8.0800     4.7790     3.3530 c3         1 87O      -0.082400
     21 O3          -0.5360     1.3150    -0.7590 o          1 87O      -0.888167
     22 O4          -0.5370    -1.3140    -0.7610 o          1 87O      -0.888167
     23 H1          17.8420     9.0020     7.3970 hc         1 87O       0.030367
     24 H2          17.7620    10.7630     7.5510 hc         1 87O       0.030367
     25 H3          17.8430    10.0180     5.9490 hc         1 87O       0.030367
     26 H4          15.5400    10.7560     6.4660 hc         1 87O       0.039700
     27 H5          15.5390     9.7400     7.9140 hc         1 87O       0.039700
     28 H6           8.0350     2.6670     2.9530 hc         1 87O       0.035700
     29 H7           8.0350     3.6830     1.5040 hc         1 87O       0.035700
     30 H8           5.7320     4.4220     2.0220 hc         1 87O       0.041700
     31 H9           5.7310     3.4060     3.4700 hc         1 87O       0.041700
     32 H10          6.0730     2.4160     0.6150 hc         1 87O       0.029700
     33 H11          6.0730     1.4000     2.0640 hc         1 87O       0.029700
     34 H12          3.7700     2.1400     2.5820 hc         1 87O       0.055200
     35 H13          3.7710     3.1550     1.1330 hc         1 87O       0.055200
     36 H14          4.1110     0.1340     1.1750 hc         1 87O       0.041200
     37 H15          4.1120     1.1490    -0.2730 hc         1 87O       0.041200
     38 H16         15.8800     8.7510     5.0590 hc         1 87O       0.040200
     39 H17         15.8800     7.7350     6.5080 hc         1 87O       0.040200
     40 H18         13.5780     9.4890     5.5770 hc         1 87O       0.040700
     41 H19         13.5780     8.4740     7.0250 hc         1 87O       0.040700
     42 H20         13.9190     6.4680     5.6190 hc         1 87O       0.039700
     43 H21         13.9190     7.4840     4.1710 hc         1 87O       0.039700
     44 H22         11.6160     7.2070     6.1360 hc         1 87O       0.040700
     45 H23         11.6160     8.2220     4.6880 hc         1 87O       0.040700
     46 H24         11.9570     6.2170     3.2820 hc         1 87O       0.039700
     47 H25         11.9570     5.2010     4.7300 hc         1 87O       0.039700
     48 H26          9.6550     5.9400     5.2480 hc         1 87O       0.040700
     49 H27          9.6550     6.9560     3.7990 hc         1 87O       0.040700
     50 H28          9.9960     3.9350     3.8420 hc         1 87O       0.037700
     51 H29          9.9960     4.9500     2.3930 hc         1 87O       0.037700
     52 H30          7.6920     4.6730     4.3590 hc         1 87O       0.040700
     53 H31          7.6930     5.6890     2.9100 hc         1 87O       0.040700
@<TRIPOS>BOND
     1     3     1 1   
     2     1    21 1   
     3     1    22 1   
     4     1     2 1   
     5     5    12 2   
     6     2    12 1   
     7    12    11 1   
     8    11    10 1   
     9    10     9 1   
    10     9     8 1   
    11     8     7 1   
    12     7    20 1   
    13    20    19 1   
    14    19    18 1   
    15    18    17 1   
    16    17    16 1   
    17    16    15 1   
    18    15    14 1   
    19    14    13 1   
    20    13     6 1   
    21     6     4 1   
    22     4    23 1   
    23     4    24 1   
    24     4    25 1   
    25     6    26 1   
    26     6    27 1   
    27     7    28 1   
    28     7    29 1   
    29     8    30 1   
    30     8    31 1   
    31     9    32 1   
    32     9    33 1   
    33    10    34 1   
    34    10    35 1   
    35    11    36 1   
    36    11    37 1   
    37    13    38 1   
    38    13    39 1   
    39    14    40 1   
    40    14    41 1   
    41    15    42 1   
    42    15    43 1   
    43    16    44 1   
    44    16    45 1   
    45    17    46 1   
    46    17    47 1   
    47    18    48 1   
    48    18    49 1   
    49    19    50 1   
    50    19    51 1   
    51    20    52 1   
    52    20    53 1   
@<TRIPOS>SUBSTRUCTURE
     1 87O         1 TEMP              0 ****  ****    0 ROOT
