@<TRIPOS>MOLECULE
molecule
   51    54     1     0     0
SMALL
bcc


@<TRIPOS>ATOM
      1 C4           0.0000     0.0000     0.0000 ca         1 87P      -0.066000
      2 C5           4.1740     1.3210    -0.6330 ca         1 87P      -0.136500
      3 C6           4.6240    -1.0390    -0.5920 ca         1 87P      -0.136500
      4 C7           1.3810     0.0000     0.0000 ca         1 87P      -0.208000
      5 C8          -0.0160     0.0120     2.4050 ca         1 87P      -0.091000
      6 C10          3.4290     0.5500     5.4430 cc         1 87P      -0.277600
      7 C13          4.0730     0.0890    -0.0010 ca         1 87P       0.090100
      8 C15          2.1170     0.0060     3.6920 cd         1 87P      -0.065300
      9 C17          4.3530     1.3970     6.2080 c          1 87P       0.615700
     10 C20          3.8070     3.2390     4.6320 c3         1 87P      -0.074400
     11 C22         -2.4900    -2.5500     2.1140 c3         1 87P      -0.246300
     12 C1           5.3700     0.2940    -2.4360 ca         1 87P      -0.126000
     13 C2           4.8230     1.4200    -1.8490 ca         1 87P      -0.117500
     14 C3           5.2720    -0.9340    -1.8080 ca         1 87P      -0.117500
     15 C9           1.3780    -0.0010     2.4100 ca         1 87P      -0.049000
     16 C11          2.9160     0.9910     4.1320 cc         1 87P      -0.093300
     17 C12         -0.7010     0.0060     1.2000 ca         1 87P       0.074600
     18 C14          2.0780     0.0000     1.1980 ca         1 87P       0.164100
     19 C16          2.8840    -0.6760     5.6860 cd         1 87P      -0.015600
     20 C18          3.2900     2.3150     3.5240 c3         1 87P      -0.003100
     21 C19          4.9300     2.5730     5.4310 c3         1 87P      -0.169400
     22 N23          2.0980    -1.0000     4.6340 na         1 87P      -0.161100
     23 N24         -2.1000     0.0050     1.1920 nu         1 87P      -0.778500
     24 O25          4.6360     1.1780     7.3670 o          1 87P      -0.548100
     25 O26         -2.3620    -1.7830    -0.4380 o          1 87P      -0.625300
     26 O27         -4.2940    -1.0050     0.8980 o          1 87P      -0.625300
     27 O28          3.4360    -0.0120     1.1950 os         1 87P      -0.233200
     28 S29         -2.9260    -1.3760     0.8020 s6         1 87P       1.325900
     29 H1          -0.5390    -0.0020    -0.9400 ha         1 87P       0.162000
     30 H3           4.5470    -2.0020    -0.1000 ha         1 87P       0.145000
     31 H4           1.9210    -0.0020    -0.9390 ha         1 87P       0.156000
     32 H5          -0.5630     0.0160     3.3400 ha         1 87P       0.144000
     33 H6           4.1860     4.1500     4.1850 hc         1 87P       0.045700
     34 H7           2.9910     3.4790     5.3030 hc         1 87P       0.045700
     35 H11         -2.4900    -2.0410     3.0700 h1         1 87P       0.098033
     36 H12         -3.2140    -3.3560     2.1330 h1         1 87P       0.098033
     37 H13         -1.5040    -2.9570     1.9220 h1         1 87P       0.098033
     38 H14          5.8790     0.3750    -3.3890 ha         1 87P       0.135000
     39 H15          4.9010     2.3810    -2.3430 ha         1 87P       0.137500
     40 H16          5.7020    -1.8140    -2.2710 ha         1 87P       0.137500
     41 H17          4.0670     2.1680     2.7830 hc         1 87P       0.053200
     42 H18          2.4180     2.7600     3.0600 hc         1 87P       0.053200
     43 H19          5.3130     3.2940     6.1420 hc         1 87P       0.070200
     44 H20          5.6630     2.1900     4.7310 hc         1 87P       0.070200
     45 H21          1.5770    -1.8510     4.5510 hn         1 87P       0.294700
     46 H22         -2.6020     0.8450     1.4040 hn         1 87P       0.465800
     47 C21          3.1150    -1.5200     6.9130 c3         1 87P      -0.024800
     48 H2           3.7450     2.2030    -0.1740 ha         1 87P       0.145000
     49 H8           2.7240    -1.0070     7.7830 hc         1 87P       0.055367
     50 H9           4.1770    -1.6900     7.0400 hc         1 87P       0.055367
     51 H10          2.6090    -2.4710     6.7970 hc         1 87P       0.055367
@<TRIPOS>BOND
     1    21     9 1   
     2    21    10 1   
     3    26    28 2   
     4    11    28 1   
     5    25    28 2   
     6    24     9 2   
     7    28    23 1   
     8     9     6 1   
     9    10    20 1   
    10    20    16 1   
    11     6    16 1   
    12     6    19 2   
    13    16     8 2   
    14    19    47 1   
    15    19    22 1   
    16    23    17 1   
    17     5    17 ar  
    18     5    15 ar  
    19     8    22 1   
    20     8    15 1   
    21    17     1 ar  
    22    15    18 ar  
    23     1     4 ar  
    24    18     4 ar  
    25    18    27 1   
    26    27     7 1   
    27     2     7 ar  
    28     2    13 ar  
    29     7     3 ar  
    30    13    12 ar  
    31     3    14 ar  
    32    12    14 ar  
    33     1    29 1   
    34     2    48 1   
    35     3    30 1   
    36     4    31 1   
    37     5    32 1   
    38    10    33 1   
    39    10    34 1   
    40    47    49 1   
    41    47    50 1   
    42    47    51 1   
    43    11    35 1   
    44    11    36 1   
    45    11    37 1   
    46    12    38 1   
    47    13    39 1   
    48    14    40 1   
    49    20    41 1   
    50    20    42 1   
    51    21    43 1   
    52    21    44 1   
    53    22    45 1   
    54    23    46 1   
@<TRIPOS>SUBSTRUCTURE
     1 87P         1 TEMP              0 ****  ****    0 ROOT
