@<TRIPOS>MOLECULE
87P
   51    54     1     0     0
SMALL
bcc


@<TRIPOS>ATOM
      1 C4           0.0000     0.0000     0.0000 ca         1 87P      -0.039000
      2 C5           4.1740     1.3210    -0.6330 ca         1 87P      -0.118000
      3 C6           4.6240    -1.0390    -0.5920 ca         1 87P      -0.118000
      4 C7           1.3810     0.0000     0.0000 ca         1 87P      -0.194000
      5 C8          -0.0160     0.0120     2.4050 ca         1 87P      -0.080000
      6 C10          3.4290     0.5500     5.4430 cc         1 87P      -0.285600
      7 C13          4.0730     0.0890    -0.0010 ca         1 87P       0.095100
      8 C15          2.1170     0.0060     3.6920 cd         1 87P      -0.255300
      9 C17          4.3530     1.3970     6.2080 c          1 87P       0.675700
     10 C20          3.8070     3.2390     4.6320 c3         1 87P      -0.017400
     11 C22         -2.4900    -2.5500     2.1140 c3         1 87P       0.011700
     12 C1           5.3700     0.2940    -2.4360 ca         1 87P      -0.103000
     13 C2           4.8230     1.4200    -1.8490 ca         1 87P      -0.085000
     14 C3           5.2720    -0.9340    -1.8080 ca         1 87P      -0.085000
     15 C9           1.3780    -0.0010     2.4100 ca         1 87P      -0.037000
     16 C11          2.9160     0.9910     4.1320 cc         1 87P      -0.091300
     17 C12         -0.7010     0.0060     1.2000 ca         1 87P       0.000600
     18 C14          2.0780     0.0000     1.1980 ca         1 87P       0.163100
     19 C16          2.8840    -0.6760     5.6860 cd         1 87P      -0.219600
     20 C18          3.2900     2.3150     3.5240 c3         1 87P       0.066900
     21 C19          4.9300     2.5730     5.4310 c3         1 87P      -0.116400
     22 N23          2.0980    -1.0000     4.6340 na         1 87P       0.397900
     23 N24         -2.1000     0.0050     1.1920 nu         1 87P      -0.427500
     24 O25          4.6360     1.1780     7.3670 o          1 87P      -0.582100
     25 O26         -2.3620    -1.7830    -0.4380 o          1 87P      -0.582300
     26 O27         -4.2940    -1.0050     0.8980 o          1 87P      -0.582300
     27 O28          3.4360    -0.0120     1.1950 os         1 87P      -0.208200
     28 S29         -2.9260    -1.3760     0.8020 s6         1 87P       0.950900
     29 H1          -0.5390    -0.0020    -0.9400 ha         1 87P       0.132000
     30 H3           4.5470    -2.0020    -0.1000 ha         1 87P       0.116500
     31 H4           1.9210    -0.0020    -0.9390 ha         1 87P       0.133000
     32 H5          -0.5630     0.0160     3.3400 ha         1 87P       0.110000
     33 H6           4.1860     4.1500     4.1850 hc         1 87P       0.014700
     34 H7           2.9910     3.4790     5.3030 hc         1 87P       0.014700
     35 H11         -2.4900    -2.0410     3.0700 h1         1 87P       0.062700
     36 H12         -3.2140    -3.3560     2.1330 h1         1 87P       0.062700
     37 H13         -1.5040    -2.9570     1.9220 h1         1 87P       0.062700
     38 H14          5.8790     0.3750    -3.3890 ha         1 87P       0.106000
     39 H15          4.9010     2.3810    -2.3430 ha         1 87P       0.106500
     40 H16          5.7020    -1.8140    -2.2710 ha         1 87P       0.106500
     41 H17          4.0670     2.1680     2.7830 hc         1 87P       0.021200
     42 H18          2.4180     2.7600     3.0600 hc         1 87P       0.021200
     43 H19          5.3130     3.2940     6.1420 hc         1 87P       0.038200
     44 H20          5.6630     2.1900     4.7310 hc         1 87P       0.038200
     45 H21          1.5770    -1.8510     4.5510 hn         1 87P       0.108700
     46 H22         -2.6020     0.8450     1.4040 hn         1 87P       0.351800
     47 C21          3.1150    -1.5200     6.9130 c3         1 87P       0.103200
     48 H2           3.7450     2.2030    -0.1740 ha         1 87P       0.116500
     49 H8           2.7240    -1.0070     7.7830 hc         1 87P       0.013700
     50 H9           4.1770    -1.6900     7.0400 hc         1 87P       0.013700
     51 H10          2.6090    -2.4710     6.7970 hc         1 87P       0.013700
@<TRIPOS>BOND
     1     1     4 ar  
     2     1    17 ar  
     3     1    29 1   
     4     2     7 ar  
     5     2    13 ar  
     6     2    48 1   
     7     3     7 ar  
     8     3    14 ar  
     9     3    30 1   
    10     4    18 ar  
    11     4    31 1   
    12     5    15 ar  
    13     5    17 ar  
    14     5    32 1   
    15     6     9 1   
    16     6    16 1   
    17     6    19 2   
    18     7    27 1   
    19     8    15 1   
    20     8    16 2   
    21     8    22 1   
    22     9    21 1   
    23     9    24 2   
    24    10    20 1   
    25    10    21 1   
    26    10    33 1   
    27    10    34 1   
    28    11    28 1   
    29    11    35 1   
    30    11    36 1   
    31    11    37 1   
    32    12    13 ar  
    33    12    14 ar  
    34    12    38 1   
    35    13    39 1   
    36    14    40 1   
    37    15    18 ar  
    38    16    20 1   
    39    17    23 1   
    40    18    27 1   
    41    19    22 1   
    42    19    47 1   
    43    20    41 1   
    44    20    42 1   
    45    21    43 1   
    46    21    44 1   
    47    22    45 1   
    48    23    28 1   
    49    23    46 1   
    50    25    28 2   
    51    26    28 2   
    52    47    49 1   
    53    47    50 1   
    54    47    51 1   
@<TRIPOS>SUBSTRUCTURE
     1 87P         1 TEMP              0 ****  ****    0 ROOT
