@<TRIPOS>MOLECULE
87R
   44    46     1     0     0
SMALL
bcc


@<TRIPOS>ATOM
      1 C18          0.0000     0.0000     0.0000 ca         1 87R      -0.051500
      2 C22         -0.0050    -0.0050     2.3970 ca         1 87R      -0.051500
      3 C19          1.3810     0.0000     0.0000 ca         1 87R      -0.153000
      4 C21          1.3770    -0.0000     2.4020 ca         1 87R      -0.153000
      5 C1          -3.7080     2.7000     4.3880 cc         1 87R       0.508500
      6 C2          -4.3940     2.3440     3.2130 cc         1 87R      -0.422800
      7 C17         -0.6930    -0.0000     1.1970 ca         1 87R      -0.127300
      8 C20          2.0740     0.0000     1.2030 ca         1 87R       0.137100
      9 C3          -5.6370     3.0020     3.2490 cd         1 87R       0.235500
     10 C6          -6.7690     4.4650     4.7150 cc         1 87R      -0.185300
     11 C8          -7.7430     3.7350     2.6700 cc         1 87R       0.414200
     12 C7          -7.8160     4.4820     3.8520 cd         1 87R      -0.226600
     13 C10         -9.0460     5.2960     4.1630 c3         1 87R       0.078200
     14 C15         -2.7160    -1.4150     1.4410 c3         1 87R      -0.038400
     15 C14         -2.1990     0.0050     1.1940 c3         1 87R       0.083000
     16 C24          4.0800    -0.0000     2.4790 c3         1 87R       0.755700
     17 N5          -4.4620     3.5070     5.0860 nd         1 87R      -0.740100
     18 N9          -6.6700     3.0240     2.4050 nd         1 87R      -0.489000
     19 N4          -5.6690     3.7190     4.4110 na         1 87R       0.561200
     20 N13         -2.6870     0.8920     2.2540 ns         1 87R      -0.208900
     21 O12         -4.6040     1.2290     1.1810 o          1 87R      -0.641100
     22 O23          3.4330     0.0000     1.2050 os         1 87R      -0.312900
     23 F25          3.7020    -1.1420     3.1930 f          1 87R      -0.196967
     24 F26          5.4670     0.0000     2.2980 f          1 87R      -0.196967
     25 F27          3.7030     1.1430     3.1940 f          1 87R      -0.196967
     26 H1          -0.5410     0.0020    -0.9380 ha         1 87R       0.112000
     27 H2          -0.5490    -0.0050     3.3330 ha         1 87R       0.112000
     28 H3           1.9240     0.0000    -0.9380 ha         1 87R       0.126000
     29 H4           1.9160    -0.0020     3.3420 ha         1 87R       0.126000
     30 H6          -6.8060     5.0370     5.6350 h4         1 87R       0.151000
     31 H7          -8.5740     3.7420     1.9750 h4         1 87R      -0.003900
     32 H8          -8.7500     6.2660     4.5430 hc         1 87R       0.014700
     33 H9          -9.6310     5.4260     3.2600 hc         1 87R       0.014700
     34 H10         -9.6400     4.7820     4.9080 hc         1 87R       0.014700
     35 H14         -2.4320    -1.7340     2.4370 hc         1 87R       0.015700
     36 H15         -2.2850    -2.0880     0.7100 hc         1 87R       0.015700
     37 H16         -2.5570     0.3580     0.2350 h1         1 87R       0.062700
     38 H17         -2.1020     1.1020     3.0390 hn         1 87R       0.176500
     39 C11         -3.9060     1.4560     2.1530 c          1 87R       0.642300
     40 C16         -4.2400    -1.4330     1.3150 c3         1 87R      -0.015100
     41 H5          -2.7170     2.3610     4.6680 h4         1 87R       0.010800
     42 H11         -4.5360    -0.8670     0.4400 hc         1 87R       0.015367
     43 H12         -4.5820    -2.4560     1.2160 hc         1 87R       0.015367
     44 H13         -4.6810    -0.9890     2.1990 hc         1 87R       0.015367
@<TRIPOS>BOND
     1     1     3 ar  
     2     1     7 ar  
     3     1    26 1   
     4     2     4 ar  
     5     2     7 ar  
     6     2    27 1   
     7     3     8 ar  
     8     3    28 1   
     9     4     8 ar  
    10     4    29 1   
    11     5     6 1   
    12     5    17 2   
    13     5    41 1   
    14     6     9 2   
    15     6    39 1   
    16     7    15 1   
    17     8    22 1   
    18     9    18 1   
    19     9    19 1   
    20    10    12 2   
    21    10    19 1   
    22    10    30 1   
    23    11    12 1   
    24    11    18 2   
    25    11    31 1   
    26    12    13 1   
    27    13    32 1   
    28    13    33 1   
    29    13    34 1   
    30    14    15 1   
    31    14    35 1   
    32    14    36 1   
    33    14    40 1   
    34    15    20 1   
    35    15    37 1   
    36    16    22 1   
    37    16    23 1   
    38    16    24 1   
    39    16    25 1   
    40    17    19 1   
    41    20    38 1   
    42    20    39 1   
    43    21    39 2   
    44    40    42 1   
    45    40    43 1   
    46    40    44 1   
@<TRIPOS>SUBSTRUCTURE
     1 87R         1 TEMP              0 ****  ****    0 ROOT
