@<TRIPOS>MOLECULE
molecule
   44    46     1     0     0
SMALL
bcc


@<TRIPOS>ATOM
      1 C18          0.0000     0.0000     0.0000 ca         1 87R      -0.088500
      2 C22         -0.0050    -0.0050     2.3970 ca         1 87R      -0.088500
      3 C19          1.3810     0.0000     0.0000 ca         1 87R      -0.164500
      4 C21          1.3770    -0.0000     2.4020 ca         1 87R      -0.164500
      5 C1          -3.7080     2.7000     4.3880 cc         1 87R       0.437500
      6 C2          -4.3940     2.3440     3.2130 cc         1 87R      -0.393800
      7 C17         -0.6930    -0.0000     1.1970 ca         1 87R      -0.114300
      8 C20          2.0740     0.0000     1.2030 ca         1 87R       0.124100
      9 C3          -5.6370     3.0020     3.2490 cd         1 87R       0.453500
     10 C6          -6.7690     4.4650     4.7150 cd         1 87R       0.008700
     11 C8          -7.7430     3.7350     2.6700 cc         1 87R       0.471200
     12 C7          -7.8160     4.4820     3.8520 cc         1 87R      -0.270600
     13 C10         -9.0460     5.2960     4.1630 c3         1 87R      -0.034800
     14 C15         -2.7160    -1.4150     1.4410 c3         1 87R      -0.092400
     15 C14         -2.1990     0.0050     1.1940 c3         1 87R       0.170000
     16 C24          4.0800    -0.0000     2.4790 c3         1 87R       0.795700
     17 N5          -4.4620     3.5070     5.0860 nd         1 87R      -0.572100
     18 N9          -6.6700     3.0240     2.4050 nd         1 87R      -0.637000
     19 N4          -5.6690     3.7190     4.4110 na         1 87R       0.051200
     20 N13         -2.6870     0.8920     2.2540 ns         1 87R      -0.585900
     21 O12         -4.6040     1.2290     1.1810 o          1 87R      -0.600100
     22 O23          3.4330     0.0000     1.2050 os         1 87R      -0.339900
     23 F25          3.7020    -1.1420     3.1930 f          1 87R      -0.204967
     24 F26          5.4670     0.0000     2.2980 f          1 87R      -0.204967
     25 F27          3.7030     1.1430     3.1940 f          1 87R      -0.204967
     26 H1          -0.5410     0.0020    -0.9380 ha         1 87R       0.140000
     27 H2          -0.5490    -0.0050     3.3330 ha         1 87R       0.140000
     28 H3           1.9240     0.0000    -0.9380 ha         1 87R       0.150500
     29 H4           1.9160    -0.0020     3.3420 ha         1 87R       0.150500
     30 H6          -6.8060     5.0370     5.6350 h4         1 87R       0.180000
     31 H7          -8.5740     3.7420     1.9750 h4         1 87R       0.043100
     32 H8          -8.7500     6.2660     4.5430 hc         1 87R       0.051033
     33 H9          -9.6310     5.4260     3.2600 hc         1 87R       0.051033
     34 H10         -9.6400     4.7820     4.9080 hc         1 87R       0.051033
     35 H14         -2.4320    -1.7340     2.4370 hc         1 87R       0.043700
     36 H15         -2.2850    -2.0880     0.7100 hc         1 87R       0.043700
     37 H16         -2.5570     0.3580     0.2350 h1         1 87R       0.086700
     38 H17         -2.1020     1.1020     3.0390 hn         1 87R       0.308500
     39 C11         -3.9060     1.4560     2.1530 c          1 87R       0.711300
     40 C16         -4.2400    -1.4330     1.3150 c3         1 87R      -0.091100
     41 H5          -2.7170     2.3610     4.6680 h4         1 87R       0.060800
     42 H11         -4.5360    -0.8670     0.4400 hc         1 87R       0.043033
     43 H12         -4.5820    -2.4560     1.2160 hc         1 87R       0.043033
     44 H13         -4.6810    -0.9890     2.1990 hc         1 87R       0.043033
@<TRIPOS>BOND
     1    24    16 1
     2    25    16 1
     3    16    23 1
     4    16    22 1
     5    22     8 1
     6     3     8 ar
     7     3     1 ar
     8     8     4 ar
     9     1     7 ar
    10     4     2 ar
    11     7     2 ar
    12     7    15 1
    13    21    39 2
    14    15    20 1
    15    15    14 1
    16    39    20 1
    17    39     6 1
    18    14    40 1
    19     6     5 1
    20     6     9 2
    21     5    17 2
    22    17    19 1
    23     9    18 1
    24     9    19 1
    25    18    11 2
    26    19    10 1
    27    11    12 1
    28    10    12 2
    29    12    13 1
    30     1    26 1
    31     2    27 1
    32     3    28 1
    33     4    29 1
    34     5    41 1
    35    10    30 1
    36    11    31 1
    37    13    32 1
    38    13    33 1
    39    13    34 1
    40    40    42 1
    41    40    43 1
    42    40    44 1
    43    14    35 1
    44    14    36 1
    45    15    37 1
    46    20    38 1
@<TRIPOS>SUBSTRUCTURE
     1 87R         1 TEMP              0 ****  ****    0 ROOT
