@<TRIPOS>MOLECULE
molecule
   39    41     1     0     0
SMALL
bcc


@<TRIPOS>ATOM
      1 C4           0.0000     0.0000     0.0000 ca         1 87S      -0.199000
      2 C5           0.9740    -1.1860    -2.9260 ca         1 87S      -0.130000
      3 C6           0.9900     1.2170    -2.9120 ca         1 87S      -0.130000
      4 C7           0.2430    -1.1720    -4.0990 ca         1 87S      -0.109500
      5 C8           0.2700     1.2250    -4.0920 ca         1 87S      -0.109500
      6 C10          2.0800     0.0000     1.2140 ca         1 87S      -0.089000
      7 C13          1.3860     0.0000     0.0000 ca         1 87S       0.162100
      8 C15          3.5600    -0.0000     1.2250 cc         1 87S       0.004700
      9 C1          -0.0080     0.0070     2.4000 ca         1 87S      -0.150000
     10 C2          -0.6930     0.0060     1.1960 ca         1 87S      -0.063000
     11 C3           1.3710     0.0010     2.4160 ca         1 87S      -0.083000
     12 C9           4.3580    -0.7070     0.3870 cd         1 87S      -0.180000
     13 C11          5.7000    -0.4150     0.7450 cd         1 87S      -0.319600
     14 C12          1.3490     0.0090    -2.3290 ca         1 87S       0.072100
     15 C14         -0.1080     0.0320    -4.6820 ca         1 87S       0.035400
     16 C16          5.6500     0.4710     1.8000 cc         1 87S       0.039400
     17 C18          6.8390     1.0650     2.5110 c3         1 87S      -0.042800
     18 N19          4.3550     0.7210     2.0810 na         1 87S      -0.124100
     19 N20          6.8110    -1.8160    -0.9200 nz         1 87S      -0.670400
     20 O21          8.0120    -0.6220     0.5150 o          1 87S      -0.461100
     21 O22          2.0670    -0.0010    -1.1760 os         1 87S      -0.259200
     22 Cl1         -1.0260     0.0460    -6.1550 cl         1 87S      -0.074400
     23 H1          -0.5410    -0.0000    -0.9390 ha         1 87S       0.159000
     24 H4          -0.0520    -2.1050    -4.5630 ha         1 87S       0.159500
     25 H5          -0.0090     2.1670    -4.5490 ha         1 87S       0.159500
     26 H6          -0.5590     0.0090     3.3330 ha         1 87S       0.150000
     27 H7          -1.7760     0.0080     1.1920 ha         1 87S       0.151000
     28 H8           1.9030     0.0010     3.3600 ha         1 87S       0.136000
     29 H9           4.0360    -1.4870    -0.2920 ha         1 87S       0.154000
     30 H10          7.4440     1.6180     1.8030 hc         1 87S       0.075033
     31 H11          7.4320     0.2710     2.9500 hc         1 87S       0.075033
     32 H12          6.4960     1.7330     3.2920 hc         1 87S       0.075033
     33 H13          4.0260     1.3310     2.8030 hn         1 87S       0.328700
     34 H14          6.3370    -1.3690    -1.6800 hn         1 87S       0.473800
     35 H15          7.7230    -2.1010    -1.2170 hn         1 87S       0.473800
     36 C17          6.9150    -0.9540     0.1100 c          1 87S       0.539700
     37 H2           1.2510    -2.1290    -2.4710 ha         1 87S       0.148500
     38 H203         6.3000    -2.6310    -0.6410 hn         1 87S       0.473800
     39 H3           1.2840     2.1510    -2.4500 ha         1 87S       0.148500
@<TRIPOS>BOND
     1    17    16 1   
     2    20    36 2   
     3    16    18 1   
     4    16    13 2   
     5    18     8 1   
     6    36    13 1   
     7    36    19 1   
     8    13    12 1   
     9    11     9 ar  
    10    11     6 ar  
    11     8    12 2   
    12     8     6 1   
    13     9    10 ar  
    14     6     7 ar  
    15    10     1 ar  
    16     7     1 ar  
    17     7    21 1   
    18    21    14 1   
    19    14     2 ar  
    20    14     3 ar  
    21     2     4 ar  
    22     3     5 ar  
    23     4    15 ar  
    24     5    15 ar  
    25    15    22 1   
    26     1    23 1   
    27     2    37 1   
    28     3    39 1   
    29     4    24 1   
    30     5    25 1   
    31     9    26 1   
    32    10    27 1   
    33    11    28 1   
    34    12    29 1   
    35    17    30 1   
    36    17    31 1   
    37    17    32 1   
    38    18    33 1   
    39    19    34 1   
    40    19    35 1   
    41    38    19 1   
@<TRIPOS>SUBSTRUCTURE
     1 87S         1 TEMP              0 ****  ****    0 ROOT
