@<TRIPOS>MOLECULE
87T
   47    50     1     0     0
SMALL
bcc


@<TRIPOS>ATOM
      1 C            0.0000     0.0000     0.0000 c3         1 87T       0.022600
      2 N            1.4650     0.0000     0.0000 na         1 87T       0.494400
      3 O            7.7630    -3.6540    -0.1020 os         1 87T      -0.199200
      4 C1           2.2560     0.0000     1.0940 cc         1 87T      -0.241300
      5 N1           2.2870    -0.0070    -1.1330 nc         1 87T      -0.655800
      6 O1           9.7660    -0.6170    -4.9010 o          1 87T      -0.648100
      7 C2           3.5520    -0.0000     0.6660 cd         1 87T      -0.242100
      8 N2           6.2270     0.5270     3.1170 na         1 87T       0.365600
      9 C3           3.5330    -0.0040    -0.7430 cd         1 87T       0.394200
     10 N3           8.7050    -2.4940    -5.4250 ns         1 87T       0.093900
     11 C4           4.7610    -0.0010     1.5280 cd         1 87T      -0.031400
     12 N4          10.5030     0.1270    -7.3080 nz         1 87T       0.114400
     13 C5           5.0130     0.8310     2.5650 cc         1 87T      -0.262100
     14 C6           6.8040    -0.5270     2.4400 ca         1 87T      -0.230200
     15 C7           5.9160    -0.9040     1.4180 ca         1 87T      -0.083800
     16 C8           6.2420    -1.9580     0.5640 ca         1 87T      -0.075000
     17 C9           7.4400    -2.6260     0.7280 ca         1 87T       0.050100
     18 C10          8.3180    -2.2500     1.7420 ca         1 87T      -0.095000
     19 C11          8.0060    -1.2120     2.5910 ca         1 87T      -0.080000
     20 C12          7.9940    -3.3690    -1.4100 ca         1 87T       0.183100
     21 C13          8.0180    -2.0490    -1.8390 ca         1 87T      -0.155500
     22 C14          8.2540    -1.7590    -3.1680 ca         1 87T      -0.045500
     23 C15          8.4670    -2.7880    -4.0760 ca         1 87T      -0.222400
     24 C16          8.4430    -4.1080    -3.6470 ca         1 87T      -0.045500
     25 C17          8.2130    -4.3970    -2.3160 ca         1 87T      -0.155500
     26 C18          9.4050    -1.3930    -5.7610 c          1 87T       0.514100
     27 C19          9.7400    -1.1250    -7.2060 c3         1 87T      -0.134200
     28 H           -0.3610     0.9760     0.3000 h1         1 87T       0.023367
     29 HA          -0.3610    -0.2290    -0.9950 h1         1 87T       0.023367
     30 HB          -0.3610    -0.7480     0.6960 h1         1 87T       0.023367
     31 H1           1.9230     0.0030     2.1250 h4         1 87T       0.150000
     32 HN2          6.6380     1.0010     3.8970 hn         1 87T       0.119700
     33 H3           4.4020    -0.0070    -1.3900 h4         1 87T      -0.000900
     34 HN3          8.3380    -3.0910    -6.1390 hn         1 87T       0.164500
     35 HN4         10.8250     0.2460    -8.2480 hn         1 87T       0.227467
     36 HN4A         9.9150     0.8970    -7.0570 hn         1 87T       0.227467
     37 H5           4.3530     1.6190     2.9070 h4         1 87T       0.147000
     38 H8           5.5110    -2.3250    -0.1460 ha         1 87T       0.121000
     39 H10          9.2550    -2.7800     1.8640 ha         1 87T       0.116000
     40 H11          8.6970    -0.9280     3.3760 ha         1 87T       0.107000
     41 H13          7.8520    -1.2460    -1.1310 ha         1 87T       0.138000
     42 H14          8.2720    -0.7290    -3.5030 ha         1 87T       0.118000
     43 H16          8.6140    -4.9110    -4.3540 ha         1 87T       0.118000
     44 H17          8.1950    -5.4270    -1.9800 ha         1 87T       0.138000
     45 H19          8.8250    -1.0380    -7.7790 hx         1 87T       0.090200
     46 H19A        10.3340    -1.9430    -7.5970 hx         1 87T       0.090200
     47 H43         11.2880     0.0910    -6.6890 hn         1 87T       0.227467
@<TRIPOS>BOND
     1     1     2 1   
     2     1    28 1   
     3     1    29 1   
     4     1    30 1   
     5     2     4 1   
     6     2     5 1   
     7     3    17 1   
     8     3    20 1   
     9     4     7 2   
    10     4    31 1   
    11     5     9 2   
    12     6    26 2   
    13     7     9 1   
    14     7    11 1   
    15     8    13 1   
    16     8    14 1   
    17     8    32 1   
    18     9    33 1   
    19    10    23 1   
    20    10    26 1   
    21    10    34 1   
    22    11    13 2   
    23    11    15 1   
    24    12    27 1   
    25    12    35 1   
    26    12    36 1   
    27    12    47 1   
    28    13    37 1   
    29    14    15 ar  
    30    14    19 ar  
    31    15    16 ar  
    32    16    17 ar  
    33    16    38 1   
    34    17    18 ar  
    35    18    19 ar  
    36    18    39 1   
    37    19    40 1   
    38    20    21 ar  
    39    20    25 ar  
    40    21    22 ar  
    41    21    41 1   
    42    22    23 ar  
    43    22    42 1   
    44    23    24 ar  
    45    24    25 ar  
    46    24    43 1   
    47    25    44 1   
    48    26    27 1   
    49    27    45 1   
    50    27    46 1   
@<TRIPOS>SUBSTRUCTURE
     1 87T         1 TEMP              0 ****  ****    0 ROOT
