@<TRIPOS>MOLECULE
molecule
   57    60     1     0     0
SMALL
bcc


@<TRIPOS>ATOM
      1 CAA          0.0000     0.0000     0.0000 c3         1 87U      -0.081100
      2 CAB          2.0400     0.0000     1.4440 c3         1 87U      -0.081100
      3 CAC          2.0390    -1.2490    -0.7210 c3         1 87U      -0.081100
      4 CAJ         11.3660     0.0230    -2.1170 ca         1 87U      -0.135000
      5 CAK          2.0480     3.1010    -1.7920 cc         1 87U       0.422400
      6 CAL         10.2790     0.8090    -1.7910 ca         1 87U      -0.138000
      7 CAM         12.6480     0.5140    -1.9810 ca         1 87U      -0.106000
      8 CAN         16.1650     0.2850    -3.8830 ca         1 87U      -0.178500
      9 CAO         17.6790     1.9350    -3.0080 ca         1 87U      -0.178500
     10 CAP         15.1160     0.8880    -3.2250 ca         1 87U      -0.078000
     11 CAQ         16.6390     2.5440    -2.3410 ca         1 87U      -0.078000
     12 CAR         11.7660     2.6180    -1.1830 ca         1 87U      -0.052000
     13 CAW         14.2310     2.3420    -1.3740 c          1 87U       0.581300
     14 CAX         17.4470     0.8040    -3.7740 ca         1 87U       0.154900
     15 CAY         10.4720     2.1140    -1.3210 ca         1 87U      -0.029800
     16 CAZ          3.3560     1.5710    -0.9130 cc         1 87U      -0.219400
     17 NAS          3.3410     2.7700    -1.6000 na         1 87U      -0.302900
     18 NAT          1.2810     2.1840    -1.2610 nd         1 87U      -0.694000
     19 NAU          8.1870     0.8770    -0.1310 ns         1 87U      -0.463100
     20 NAV          5.9410     2.5910    -0.4050 ns         1 87U      -0.489100
     21 OAD         14.4510     3.2740    -0.6260 o          1 87U      -0.513100
     22 CBA         15.3460     2.0260    -2.4470 ca         1 87U      -0.170600
     23 CBB         12.8570     1.8180    -1.5190 ca         1 87U      -0.147600
     24 CBC          2.0330     1.2300    -0.7100 cd         1 87U       0.393600
     25 CBD          7.1780     3.0960    -0.5820 c          1 87U       0.703700
     26 CBE          6.9480     0.3760     0.0560 c          1 87U       0.724700
     27 CBF          8.3360     2.1860    -0.5940 cc         1 87U      -0.057600
     28 CBG          5.7790     1.2110    -0.2340 cd         1 87U      -0.076600
     29 CBH          1.5300     0.0000     0.0000 c3         1 87U      -0.087300
     30 H1          -0.3610    -0.0030    -1.0210 hc         1 87U       0.040811
     31 H2          -0.3610    -0.8830     0.5130 hc         1 87U       0.040811
     32 H3          -0.3610     0.8860     0.5080 hc         1 87U       0.040811
     33 H4           2.0140     1.0100     1.8360 hc         1 87U       0.040811
     34 H5           3.0570    -0.3710     1.4670 hc         1 87U       0.040811
     35 H6           1.4080    -0.6390     2.0490 hc         1 87U       0.040811
     36 H7           2.9440    -1.6010    -0.2390 hc         1 87U       0.040811
     37 H8           2.2520    -1.0080    -1.7550 hc         1 87U       0.040811
     38 H9           1.2830    -2.0240    -0.6780 hc         1 87U       0.040811
     39 H10          9.4090     3.6700    -1.2680 ha         1 87U       0.152000
     40 H12          4.4290    -0.2320    -0.3630 ha         1 87U       0.161000
     41 H14         11.2120    -0.9870    -2.4770 ha         1 87U       0.138000
     42 H15          1.7000     3.9900    -2.3040 h5         1 87U       0.070100
     43 H16          9.2750     0.4160    -1.9000 ha         1 87U       0.151000
     44 H17         13.4950    -0.1090    -2.2400 ha         1 87U       0.154000
     45 H18         15.9900    -0.5990    -4.4850 ha         1 87U       0.149500
     46 H19         18.6820     2.3360    -2.9260 ha         1 87U       0.149500
     47 H20         14.1150     0.4820    -3.3110 ha         1 87U       0.158500
     48 H21         16.8220     3.4270    -1.7410 ha         1 87U       0.158500
     49 H22         11.9220     3.6280    -0.8250 ha         1 87U       0.163000
     50 H23          4.1400     3.2920    -1.9020 hn         1 87U       0.307700
     51 H11          8.9930     0.3150     0.0630 hn         1 87U       0.357500
     52 H13          5.1450     3.1970    -0.3940 hn         1 87U       0.343500
     53 CAI          4.4970     0.8410    -0.4950 ce         1 87U      -0.055200
     54 CAH          9.5360     2.6160    -1.0520 cf         1 87U      -0.103200
     55 OAE          7.3380     4.2930    -0.7330 o          1 87U      -0.621500
     56 OAF          6.8030    -0.7630     0.4630 o          1 87U      -0.610500
     57 FAG         18.4730     0.2030    -4.4160 f          1 87U      -0.135900
@<TRIPOS>BOND
     1     2    29 1   
     2    18     5 2   
     3    18    24 1   
     4     5    17 1   
     5     1    29 1   
     6    29    24 1   
     7    29     3 1   
     8    24    16 2   
     9    17    16 1   
    10    16    53 1   
    11    53    28 2   
    12    20    28 1   
    13    20    25 1   
    14    28    26 1   
    15    55    25 2   
    16    25    27 1   
    17    26    56 2   
    18    26    19 1   
    19    27    19 1   
    20    27    54 2   
    21    54    15 1   
    22    15     6 ar  
    23    15    12 ar  
    24     6     4 ar  
    25    12    23 ar  
    26     4     7 ar  
    27    23     7 ar  
    28    23    13 1   
    29    21    13 2   
    30    13    22 1   
    31    22    11 ar  
    32    22    10 ar  
    33    11     9 ar  
    34    10     8 ar  
    35     9    14 ar  
    36     8    14 ar  
    37    14    57 1   
    38     1    30 1   
    39     1    31 1   
    40     1    32 1   
    41     2    33 1   
    42     2    34 1   
    43     2    35 1   
    44     3    36 1   
    45     3    37 1   
    46     3    38 1   
    47    54    39 1   
    48    53    40 1   
    49     4    41 1   
    50     5    42 1   
    51     6    43 1   
    52     7    44 1   
    53     8    45 1   
    54     9    46 1   
    55    10    47 1   
    56    11    48 1   
    57    12    49 1   
    58    17    50 1   
    59    19    51 1   
    60    20    52 1   
@<TRIPOS>SUBSTRUCTURE
     1 87U         1 TEMP              0 ****  ****    0 ROOT
