@<TRIPOS>MOLECULE
87U
   57    60     1     0     0
SMALL
bcc


@<TRIPOS>ATOM
      1 CAA          0.0000     0.0000     0.0000 c3         1 87U       0.001900
      2 CAB          2.0400     0.0000     1.4440 c3         1 87U       0.001900
      3 CAC          2.0390    -1.2490    -0.7210 c3         1 87U       0.001900
      4 CAJ         11.3660     0.0230    -2.1170 ca         1 87U      -0.094000
      5 CAK          2.0480     3.1010    -1.7920 cc         1 87U       0.233400
      6 CAL         10.2790     0.8090    -1.7910 ca         1 87U      -0.133000
      7 CAM         12.6480     0.5140    -1.9810 ca         1 87U      -0.099000
      8 CAN         16.1650     0.2850    -3.8830 ca         1 87U      -0.142000
      9 CAO         17.6790     1.9350    -3.0080 ca         1 87U      -0.142000
     10 CAP         15.1160     0.8880    -3.2250 ca         1 87U      -0.061000
     11 CAQ         16.6390     2.5440    -2.3410 ca         1 87U      -0.061000
     12 CAR         11.7660     2.6180    -1.1830 ca         1 87U      -0.019000
     13 CAW         14.2310     2.3420    -1.3740 c          1 87U       0.643300
     14 CAX         17.4470     0.8040    -3.7740 ca         1 87U       0.125900
     15 CAY         10.4720     2.1140    -1.3210 ca         1 87U      -0.029800
     16 CAZ          3.3560     1.5710    -0.9130 cc         1 87U      -0.402400
     17 NAS          3.3410     2.7700    -1.6000 na         1 87U       0.237100
     18 NAT          1.2810     2.1840    -1.2610 nd         1 87U      -0.606000
     19 NAU          8.1870     0.8770    -0.1310 ns         1 87U      -0.016100
     20 NAV          5.9410     2.5910    -0.4050 ns         1 87U      -0.066100
     21 OAD         14.4510     3.2740    -0.6260 o          1 87U      -0.545100
     22 CBA         15.3460     2.0260    -2.4470 ca         1 87U      -0.171600
     23 CBB         12.8570     1.8180    -1.5190 ca         1 87U      -0.152600
     24 CBC          2.0330     1.2300    -0.7100 cd         1 87U       0.367600
     25 CBD          7.1780     3.0960    -0.5820 c          1 87U       0.622700
     26 CBE          6.9480     0.3760     0.0560 c          1 87U       0.637700
     27 CBF          8.3360     2.1860    -0.5940 cc         1 87U      -0.217600
     28 CBG          5.7790     1.2110    -0.2340 cd         1 87U      -0.233600
     29 CBH          1.5300     0.0000     0.0000 c3         1 87U      -0.080300
     30 H1          -0.3610    -0.8870     0.5060 hc         1 87U       0.010478
     31 H2          -0.3610     0.8820     0.5150 hc         1 87U       0.010478
     32 H3          -0.3610     0.0050    -1.0210 hc         1 87U       0.010478
     33 H4           3.0580    -0.3680     1.4670 hc         1 87U       0.010478
     34 H5           1.4100    -0.6410     2.0490 hc         1 87U       0.010478
     35 H6           2.0120     1.0090     1.8360 hc         1 87U       0.010478
     36 H7           1.2830    -2.0240    -0.6780 hc         1 87U       0.010478
     37 H8           2.2520    -1.0080    -1.7550 hc         1 87U       0.010478
     38 H9           2.9440    -1.6010    -0.2390 hc         1 87U       0.010478
     39 H10          9.4380     3.6870    -1.1840 ha         1 87U       0.134000
     40 H12          4.4290    -0.2320    -0.3630 ha         1 87U       0.135000
     41 H14         11.2120    -0.9870    -2.4770 ha         1 87U       0.109000
     42 H15          1.7000     3.9900    -2.3040 h5         1 87U       0.026100
     43 H16          9.2750     0.4160    -1.9000 ha         1 87U       0.124000
     44 H17         13.4950    -0.1090    -2.2400 ha         1 87U       0.137000
     45 H18         15.9900    -0.5990    -4.4850 ha         1 87U       0.122000
     46 H19         18.6820     2.3360    -2.9260 ha         1 87U       0.122000
     47 H20         14.1150     0.4820    -3.3110 ha         1 87U       0.134500
     48 H21         16.8220     3.4270    -1.7410 ha         1 87U       0.134500
     49 H22         11.9220     3.6280    -0.8250 ha         1 87U       0.130000
     50 H23          4.1400     3.2920    -1.9020 hn         1 87U       0.134700
     51 H11          8.9930     0.3150     0.0630 hn         1 87U       0.202500
     52 H13          5.1450     3.1970    -0.3950 hn         1 87U       0.188500
     53 CAI          4.4970     0.8410    -0.4950 ce         1 87U      -0.012200
     54 CAH          9.5360     2.6160    -1.0520 cf         1 87U      -0.078200
     55 OAE          7.3380     4.2930    -0.7330 o          1 87U      -0.661500
     56 OAF          6.8030    -0.7630     0.4630 o          1 87U      -0.650500
     57 FAG         18.4730     0.2030    -4.4160 f          1 87U      -0.125900
@<TRIPOS>BOND
     1     1    29 1   
     2     1    30 1   
     3     1    31 1   
     4     1    32 1   
     5     2    29 1   
     6     2    33 1   
     7     2    34 1   
     8     2    35 1   
     9     3    29 1   
    10     3    36 1   
    11     3    37 1   
    12     3    38 1   
    13     4     6 ar  
    14     4     7 ar  
    15     4    41 1   
    16     5    17 1   
    17     5    18 2   
    18     5    42 1   
    19     6    15 ar  
    20     6    43 1   
    21     7    23 ar  
    22     7    44 1   
    23     8    10 ar  
    24     8    14 ar  
    25     8    45 1   
    26     9    11 ar  
    27     9    14 ar  
    28     9    46 1   
    29    10    22 ar  
    30    10    47 1   
    31    11    22 ar  
    32    11    48 1   
    33    12    15 ar  
    34    12    23 ar  
    35    12    49 1   
    36    13    21 2   
    37    13    22 1   
    38    13    23 1   
    39    14    57 1   
    40    15    54 1   
    41    16    17 1   
    42    16    24 2   
    43    16    53 1   
    44    17    50 1   
    45    18    24 1   
    46    19    26 1   
    47    19    27 1   
    48    19    51 1   
    49    20    25 1   
    50    20    28 1   
    51    20    52 1   
    52    24    29 1   
    53    25    27 1   
    54    25    55 2   
    55    26    28 1   
    56    26    56 2   
    57    27    54 2   
    58    28    53 2   
    59    39    54 1   
    60    40    53 1   
@<TRIPOS>SUBSTRUCTURE
     1 87U         1 TEMP              0 ****  ****    0 ROOT
