@<TRIPOS>MOLECULE
87V
   28    29     1     0     0
SMALL
bcc


@<TRIPOS>ATOM
      1 C4           0.0000     0.0000     0.0000 ca         1 87V      -0.089000
      2 C5           2.0870     0.0000     1.2110 ca         1 87V      -0.089000
      3 C6           1.5840    -0.0000    -2.5190 cc         1 87V      -0.161000
      4 C7           1.3950     0.0000     0.0000 ca         1 87V      -0.043000
      5 C8           2.6510    -0.0000    -3.4530 cc         1 87V      -0.335600
      6 C10          3.8220     0.0000    -2.7250 cd         1 87V      -0.165600
      7 C1           0.0060     0.0110     2.3950 ca         1 87V      -0.069000
      8 C2          -0.6860     0.0050     1.1960 ca         1 87V      -0.080500
      9 C3           1.3890    -0.0010     2.4010 ca         1 87V      -0.080500
     10 C9           2.1370     0.0010    -1.2790 cd         1 87V      -0.187300
     11 N13          3.5040     0.0010    -1.4150 na         1 87V       0.461900
     12 N14          1.3150    -0.0000    -5.4990 nz         1 87V       0.209600
     13 O15          3.5330    -0.0020    -5.6120 o          1 87V      -0.473100
     14 H1          -0.5430    -0.0020    -0.9370 ha         1 87V       0.097000
     15 H2           3.1710    -0.0050     1.2170 ha         1 87V       0.097000
     16 H3           0.5250    -0.0000    -2.7510 ha         1 87V       0.126000
     17 H4          -0.5380     0.0130     3.3320 ha         1 87V       0.117000
     18 H5          -1.7690     0.0100     1.1980 ha         1 87V       0.115000
     19 H6           1.9250     0.0010     3.3430 ha         1 87V       0.115000
     20 H7           5.9370     0.0000    -2.4870 hc         1 87V       0.030367
     21 H8           5.3570    -0.8850    -3.9050 hc         1 87V       0.030367
     22 H9           5.3570     0.8840    -3.9050 hc         1 87V       0.030367
     23 H10          4.1610     0.0010    -0.6590 hn         1 87V       0.138700
     24 H11          1.4180    -0.0000    -6.4940 hn         1 87V       0.241800
     25 H12          0.8110     0.8170    -5.2150 hn         1 87V       0.241800
     26 C11          2.5320    -0.0010    -4.9210 c          1 87V       0.393700
     27 H143         0.8100    -0.8170    -5.2160 hn         1 87V       0.241800
     28 C12          5.2160    -0.0000    -3.2950 c3         1 87V       0.086200
@<TRIPOS>BOND
     1     1     4 ar  
     2     1     8 ar  
     3     1    14 1   
     4     2     4 ar  
     5     2     9 ar  
     6     2    15 1   
     7     3     5 1   
     8     3    10 2   
     9     3    16 1   
    10     4    10 1   
    11     5     6 2   
    12     5    26 1   
    13     6    11 1   
    14     6    28 1   
    15     7     8 ar  
    16     7     9 ar  
    17     7    17 1   
    18     8    18 1   
    19     9    19 1   
    20    10    11 1   
    21    11    23 1   
    22    12    24 1   
    23    12    25 1   
    24    12    26 1   
    25    12    27 1   
    26    13    26 2   
    27    20    28 1   
    28    21    28 1   
    29    22    28 1   
@<TRIPOS>SUBSTRUCTURE
     1 87V         1 TEMP              0 ****  ****    0 ROOT
