@<TRIPOS>MOLECULE
molecule
   32    32     1     0     0
SMALL
bcc


@<TRIPOS>ATOM
      1 C            0.0000     0.0000     0.0000 c          1 87X       0.890600
      2 O            1.2080     0.0000     0.0000 o          1 87X      -0.858300
      3 C12         -0.7540     0.0000     1.3040 c3         1 87X      -0.182400
      4 C13          0.2400    -0.0070     2.4680 c3         1 87X      -0.063400
      5 C14         -0.5260    -0.0060     3.7920 c3         1 87X      -0.090400
      6 C15          0.4680    -0.0140     4.9560 c3         1 87X      -0.077400
      7 C16         -0.2980    -0.0140     6.2810 c3         1 87X      -0.070700
      8 C21          0.6910    -0.1480     7.4410 c3         1 87X      -0.075400
      9 C20         -0.0750    -0.1460     8.7660 c3         1 87X      -0.079900
     10 C19         -0.8520     1.1630     8.9060 c3         1 87X      -0.078400
     11 C18         -1.8410     1.2970     7.7450 c3         1 87X      -0.079900
     12 C17         -1.0740     1.2960     6.4210 c3         1 87X      -0.075400
     13 O1          -0.6710     0.0070    -1.1630 o          1 87X      -0.858300
     14 H1          -1.3730     0.8870     1.3640 hc         1 87X       0.026700
     15 H2          -1.3810    -0.8820     1.3590 hc         1 87X       0.026700
     16 H3           0.8670     0.8750     2.4130 hc         1 87X       0.044700
     17 H4           0.8590    -0.8940     2.4090 hc         1 87X       0.044700
     18 H5          -1.1530    -0.8880     3.8470 hc         1 87X       0.029700
     19 H6          -1.1450     0.8810     3.8520 hc         1 87X       0.029700
     20 H7           1.0870    -0.9010     4.8960 hc         1 87X       0.039700
     21 H8           1.0950     0.8680     4.9010 hc         1 87X       0.039700
     22 H9          -0.9910    -0.8460     6.3020 hc         1 87X       0.047700
     23 H10          1.3810     0.6870     7.4240 hc         1 87X       0.042700
     24 H11          1.2380    -1.0770     7.3430 hc         1 87X       0.042700
     25 H12          0.6260    -0.2380     9.5870 hc         1 87X       0.033950
     26 H13         -0.7670    -0.9790     8.7810 hc         1 87X       0.033950
     27 H14         -0.1600     1.9960     8.8860 hc         1 87X       0.032700
     28 H15         -1.3950     1.1600     9.8430 hc         1 87X       0.032700
     29 H16         -2.5300     0.4610     7.7620 hc         1 87X       0.033950
     30 H17         -2.3880     2.2260     7.8440 hc         1 87X       0.033950
     31 H18         -1.7750     1.3880     5.6000 hc         1 87X       0.042700
     32 H19         -0.3810     2.1290     6.4060 hc         1 87X       0.042700
@<TRIPOS>BOND
     1     9    10 1   
     2     9     8 1   
     3    10    11 1   
     4     8     7 1   
     5    11    12 1   
     6    12     7 1   
     7     7     6 1   
     8     6     5 1   
     9     5     4 1   
    10     4     3 1   
    11     2     1 1   
    12     1     3 1   
    13     1    13 1   
    14     3    14 1   
    15     3    15 1   
    16     4    16 1   
    17     4    17 1   
    18     5    18 1   
    19     5    19 1   
    20     6    20 1   
    21     6    21 1   
    22     7    22 1   
    23     8    23 1   
    24     8    24 1   
    25     9    25 1   
    26     9    26 1   
    27    10    27 1   
    28    10    28 1   
    29    11    29 1   
    30    11    30 1   
    31    12    31 1   
    32    12    32 1   
@<TRIPOS>SUBSTRUCTURE
     1 87X         1 TEMP              0 ****  ****    0 ROOT
