@<TRIPOS>MOLECULE
87Y
   42    44     1     0     0
SMALL
bcc


@<TRIPOS>ATOM
      1 N2          0.0300    1.1730   -0.2010 n         1 87Y     -0.512400
      2 C3          1.3910    0.7550   -0.2320 c         1 87Y      0.751700
      3 O8          1.9880    0.9250   -1.3060 o         1 87Y     -0.606500
      4 C7          1.9030    0.1730    1.0040 cc        1 87Y     -0.187600
      5 N10         3.2270   -0.2470    1.0440 ne        1 87Y     -0.468300
      6 C12         3.6980   -0.7520    2.1440 c2        1 87Y      0.295300
      7 C15         5.1320   -1.2360    2.1920 c3        1 87Y      0.115100
      8 O16         6.0530   -0.3730    1.5660 oh        1 87Y     -0.594800
      9 C11         2.8940   -0.9450    3.4430 c3        1 87Y      0.188900
     10 C14         2.9450   -2.4520    3.8000 c3        1 87Y     -0.091400
     11 C13         3.5730   -0.1280    4.5600 c3        1 87Y     -0.114100
     12 N9          1.5040   -0.5110    3.2840 nh        1 87Y     -0.744000
     13 C6          1.0340    0.0620    2.1280 cd        1 87Y      0.454600
     14 N4         -0.2930    0.4910    2.1030 nd        1 87Y     -0.742300
     15 C1         -0.7410    1.0580    0.9590 cc        1 87Y      0.720800
     16 N5         -2.0350    1.6070    0.9530 nh        1 87Y     -0.905800
     17 C17         2.1340   -2.8200    5.0270 c3        1 87Y     -0.038100
     18 C18         2.4100   -4.2200    5.4540 ca        1 87Y     -0.083300
     19 C19         3.1450   -4.4770    6.6170 ca        1 87Y     -0.126500
     20 C20         3.3910   -5.7900    7.0160 ca        1 87Y     -0.127000
     21 C21         2.9070   -6.8560    6.2590 ca        1 87Y     -0.130000
     22 C22         2.1730   -6.6050    5.0980 ca        1 87Y     -0.127000
     23 C23         1.9250   -5.2940    4.6980 ca        1 87Y     -0.126500
     24 H2         -0.3290    1.6250   -1.0140 hn        1 87Y      0.334500
     25 H152        5.4950   -1.2940    3.2550 h1        1 87Y      0.051700
     26 H151        5.1760   -2.2590    1.7250 h1        1 87Y      0.051700
     27 H16         5.7720   -0.2400    0.6510 ho        1 87Y      0.423000
     28 H142        2.5840   -3.0500    2.9230 hc        1 87Y      0.059700
     29 H141        4.0190   -2.7250    3.9730 hc        1 87Y      0.059700
     30 H133        2.8940    0.0090    5.4370 hc        1 87Y      0.050367
     31 H132        3.8650    0.8790    4.1760 hc        1 87Y      0.050367
     32 H131        4.4890   -0.6560    4.9150 hc        1 87Y      0.050367
     33 H9          0.9300   -0.5540    4.0950 hn        1 87Y      0.450800
     34 H52        -2.5120    1.6270    0.0820 hn        1 87Y      0.430300
     35 H51        -2.6010    1.3970    1.7460 hn        1 87Y      0.430300
     36 H172        2.3720   -2.1100    5.8630 hc        1 87Y      0.048200
     37 H171        1.0360   -2.7250    4.8070 hc        1 87Y      0.048200
     38 H19         3.5290   -3.6410    7.2190 ha        1 87Y      0.131500
     39 H20         3.9690   -5.9840    7.9320 ha        1 87Y      0.132000
     40 H21         3.1020   -7.8910    6.5740 ha        1 87Y      0.132000
     41 H22         1.7890   -7.4440    4.4990 ha        1 87Y      0.132000
     42 H23         1.3460   -5.0970    3.7830 ha        1 87Y      0.131500
@<TRIPOS>BOND
     1    1    2 1
     2    1   15 1
     3    1   24 1
     4    2    3 2
     5    2    4 1
     6    4    5 1
     7    4   13 2
     8    5    6 2
     9    6    7 1
    10    6    9 1
    11    7    8 1
    12    7   25 1
    13    7   26 1
    14    8   27 1
    15    9   10 1
    16    9   11 1
    17    9   12 1
    18   10   17 1
    19   10   28 1
    20   10   29 1
    21   11   30 1
    22   11   31 1
    23   11   32 1
    24   12   13 1
    25   12   33 1
    26   13   14 1
    27   14   15 2
    28   15   16 1
    29   16   34 1
    30   16   35 1
    31   17   18 1
    32   17   36 1
    33   17   37 1
    34   18   19 ar
    35   18   23 ar
    36   19   20 ar
    37   19   38 1
    38   20   21 ar
    39   20   39 1
    40   21   22 ar
    41   21   40 1
    42   22   23 ar
    43   22   41 1
    44   23   42 1
@<TRIPOS>SUBSTRUCTURE
     1 87Y         1 TEMP              0 ****  ****    0 ROOT
