@<TRIPOS>MOLECULE
molecule
   69    73     1     0     0
SMALL
bcc


@<TRIPOS>ATOM
      1 N1           0.0000     0.0000     0.0000 na         1 880      -0.164900
      2 C2           1.3480     0.0000     0.0000 cc         1 880       0.429800
      3 N3           1.7840     0.0000     1.2280 nd         1 880      -0.687000
      4 C4           0.7420    -0.0020     2.0770 cd         1 880       0.415800
      5 C5          -0.4120     0.0050     1.3150 cc         1 880      -0.292100
      6 C6          -0.8690     0.0010    -1.1800 c3         1 880       0.030300
      7 C7          -1.1710    -1.4400    -1.5920 c3         1 880      -0.104400
      8 C10         -2.0770    -1.4400    -2.8250 c3         1 880      -0.092100
      9 C16          2.2170     0.0020    -1.2310 c3         1 880      -0.085000
     10 C17          3.1020     1.2510    -1.2340 c3         1 880      -0.068900
     11 C18          4.0600     1.1870    -2.4260 c3         1 880       0.146800
     12 N19          4.9250     0.0100    -2.3040 n7         1 880      -0.795200
     13 C20          4.0690    -1.1750    -2.4200 c3         1 880       0.146800
     14 C21          3.1110    -1.2410    -1.2290 c3         1 880      -0.068900
     15 C35          0.8160    -0.0020     3.5580 ca         1 880      -0.077500
     16 C36         -1.8000     0.0070     1.8090 ca         1 880       0.593800
     17 C37         -0.0670     0.7780     4.3020 ca         1 880      -0.089000
     18 C38          0.0020     0.7680     5.6810 ca         1 880       0.026400
     19 C39          0.9560    -0.0030     6.3230 ca         1 880       0.028400
     20 C40          1.8390    -0.7750     5.5870 ca         1 880      -0.121000
     21 C41          1.7740    -0.7760     4.2100 ca         1 880      -0.091000
     22 Cl45        -1.1010     1.7330     6.6100 cl         1 880      -0.095400
     23 Cl46         1.0440    -0.0040     8.0570 cl         1 880      -0.097400
     24 C47         -2.7800     0.7850     1.1760 ca         1 880      -0.456600
     25 C48         -4.0670     0.7540     1.6750 ca         1 880       0.503200
     26 N49         -4.3360    -0.0030     2.7280 nb         1 880      -0.803000
     27 C50         -3.3910    -0.7280     3.3090 ca         1 880       0.951900
     28 N51         -2.1460    -0.7320     2.8620 nb         1 880      -0.787000
     29 N54         -3.7170    -1.5040     4.4070 nu         1 880      -0.887900
     30 C55         -5.0920    -1.5160     4.9140 c3         1 880       0.248500
     31 C56         -5.3890    -2.8770     5.5490 c3         1 880      -0.094400
     32 C57         -6.8240    -2.8900     6.0780 c3         1 880      -0.076900
     33 C58         -6.9900    -1.7890     7.1280 c3         1 880      -0.083400
     34 C59         -6.6940    -0.4310     6.4920 c3         1 880      -0.076900
     35 C60         -5.2580    -0.4170     5.9630 c3         1 880      -0.094400
     36 H061        -0.3700     0.5120    -1.9950 h1         1 880       0.068700
     37 H062        -1.7950     0.5110    -0.9460 h1         1 880       0.068700
     38 H071        -1.6700    -1.9520    -0.7770 hc         1 880       0.057700
     39 H072        -0.2440    -1.9510    -1.8250 hc         1 880       0.057700
     40 H101        -3.0910    -1.1990    -2.5280 hc         1 880       0.038700
     41 H102        -1.7230    -0.7010    -3.5340 hc         1 880       0.038700
     42 H103        -2.0600    -2.4200    -3.2870 hc         1 880       0.038700
     43 H16          1.5960    -0.0020    -2.1190 hc         1 880       0.047700
     44 H171         2.4800     2.1340    -1.3180 hc         1 880       0.062950
     45 H172         3.6730     1.2900    -0.3140 hc         1 880       0.062950
     46 H181         4.6710     2.0810    -2.4430 h1         1 880       0.031200
     47 H182         3.4870     1.1180    -3.3430 h1         1 880       0.031200
     48 H19          5.5960     0.0110    -3.0470 hn         1 880       0.351800
     49 H201         4.6870    -2.0650    -2.4330 h1         1 880       0.031200
     50 H202         3.4960    -1.1160    -3.3380 h1         1 880       0.031200
     51 H211         2.4950    -2.1290    -1.3100 hc         1 880       0.062950
     52 H212         3.6810    -1.2730    -0.3090 hc         1 880       0.062950
     53 H37         -0.8140     1.3810     3.7990 ha         1 880       0.151000
     54 H40          2.5840    -1.3760     6.0950 ha         1 880       0.148000
     55 H41          2.4660    -1.3810     3.6350 ha         1 880       0.154000
     56 H47         -2.5330     1.3950     0.3160 ha         1 880       0.143000
     57 H48         -4.8480     1.3420     1.2090 h4         1 880       0.027100
     58 H54         -3.0210    -2.0820     4.8350 hn         1 880       0.459800
     59 H55         -5.7840    -1.3420     4.0990 h1         1 880       0.081700
     60 H561        -4.7020    -3.0500     6.3680 hc         1 880       0.049200
     61 H562        -5.2730    -3.6550     4.8030 hc         1 880       0.049200
     62 H571        -7.5110    -2.7130     5.2590 hc         1 880       0.043950
     63 H572        -7.0330    -3.8520     6.5300 hc         1 880       0.043950
     64 H581        -8.0080    -1.7980     7.5000 hc         1 880       0.042700
     65 H582        -6.3000    -1.9630     7.9440 hc         1 880       0.042700
     66 H591        -7.3810    -0.2590     5.6720 hc         1 880       0.043950
     67 H592        -6.8110     0.3480     7.2370 hc         1 880       0.043950
     68 H601        -5.0500     0.5460     5.5120 hc         1 880       0.049200
     69 H602        -4.5710    -0.5940     6.7820 hc         1 880       0.049200
@<TRIPOS>BOND
     1     1     2 1   
     2     1     5 1   
     3     1     6 1   
     4     2     3 2   
     5     2     9 1   
     6     3     4 1   
     7     4     5 2   
     8     4    15 1   
     9     5    16 1   
    10     6     7 1   
    11     6    36 1   
    12     6    37 1   
    13     7     8 1   
    14     7    38 1   
    15     7    39 1   
    16     8    40 1   
    17     8    41 1   
    18     8    42 1   
    19     9    10 1   
    20     9    14 1   
    21     9    43 1   
    22    10    11 1   
    23    10    44 1   
    24    10    45 1   
    25    11    12 1   
    26    11    46 1   
    27    11    47 1   
    28    12    13 1   
    29    12    48 1   
    30    13    14 1   
    31    13    49 1   
    32    13    50 1   
    33    14    51 1   
    34    14    52 1   
    35    15    17 ar  
    36    15    21 ar  
    37    16    24 ar  
    38    16    28 ar  
    39    17    18 ar  
    40    17    53 1   
    41    18    19 ar  
    42    18    22 1   
    43    19    20 ar  
    44    19    23 1   
    45    20    21 ar  
    46    20    54 1   
    47    21    55 1   
    48    24    25 ar  
    49    24    56 1   
    50    25    26 ar  
    51    25    57 1   
    52    26    27 ar  
    53    27    28 ar  
    54    27    29 1   
    55    29    30 1   
    56    29    58 1   
    57    30    31 1   
    58    30    35 1   
    59    30    59 1   
    60    31    32 1   
    61    31    60 1   
    62    31    61 1   
    63    32    33 1   
    64    32    62 1   
    65    32    63 1   
    66    33    34 1   
    67    33    64 1   
    68    33    65 1   
    69    34    35 1   
    70    34    66 1   
    71    34    67 1   
    72    35    68 1   
    73    35    69 1   
@<TRIPOS>SUBSTRUCTURE
     1 880         1 TEMP              0 ****  ****    0 ROOT
