@<TRIPOS>MOLECULE
881
   91    87     1     0     0
SMALL
bcc


@<TRIPOS>ATOM
      1 NAA         0.5270   -0.4500   -2.7080 n3        1 881     -0.375000
      2 NAB        -8.6350    2.6030  -15.7880 n3        1 881     -0.439000
      3 CAC         5.1550   -1.1340   -1.8700 c2        1 881     -0.530000
      4 CAD        -5.1560    0.9200  -19.9810 c2        1 881     -0.517000
      5 CAE         5.0830   -0.5970   -3.1690 c1        1 881     -0.075000
      6 CAF        -5.4500   -0.3590  -19.9020 c1        1 881      0.206000
      7 CAG         6.2750   -1.6200   -1.3420 c1        1 881      0.388000
      8 CAH        -5.8890    2.0090  -19.3570 c1        1 881      0.069000
      9 CAI         3.9090    0.0160   -3.7470 c3        1 881     -0.213000
     10 CAJ        -7.2830   -0.4920  -17.9900 c2        1 881     -0.068000
     11 CAK        -1.1670    1.3440   -4.7200 c2        1 881     -0.233000
     12 CAL        -6.7730    1.4560  -12.6260 c1        1 881     -0.061000
     13 CAM        -4.8630    1.8840   -7.1610 c3        1 881     -0.244000
     14 CAN        -5.7290    1.9230   -8.3580 c1        1 881      0.062000
     15 CAO        -2.4420    1.5000   -5.4480 c3        1 881     -0.074000
     16 CAP        -6.6340    1.6250  -11.2100 c3        1 881     -0.091000
     17 CAQ        -0.0340    0.4990   -6.6980 c2        1 881     -0.210000
     18 CAR        -4.8270    0.6200  -12.9820 c1        1 881      0.004000
     19 CAS        11.8010   -2.9300    0.5460 c2        1 881      0.151000
     20 CAT        -2.7350   -2.0500  -10.4390 c1        1 881     -0.227750
     21 CAU         8.6290   -0.9910   -4.5900 c2        1 881      0.135000
     22 CAV         2.1690    0.2350   -9.4110 c1        1 881     -0.227750
     23 CAW        13.1340   -3.6800    2.5680 c3        1 881     -0.244000
     24 CAX        -2.8890   -2.9910  -11.1620 c1        1 881     -0.227750
     25 CAY         9.0590   -1.4040   -3.3460 c2        1 881     -0.467000
     26 CAZ         1.9620   -0.8470   -9.8760 c1        1 881     -0.227750
     27 NBA         2.8860    1.0600   -1.7070 n2        1 881     -0.216000
     28 NBB        -6.6190    1.8750  -18.2670 n3        1 881     -0.187000
     29 NBC        12.8480   -2.8960   -0.2280 n3        1 881     -0.163000
     30 NBD         7.3710   -0.6660   -4.9180 n3        1 881     -0.362000
     31 NBE         1.2340    0.8590   -4.6450 n2        1 881     -0.232000
     32 OBI        -3.6160    0.9890   -8.9870 os        1 881     -0.136000
     33 CBJ         1.4050    0.3250   -3.4620 c2        1 881      0.153000
     34 CBK        -6.5760    0.7970  -16.0960 c1        1 881      0.287000
     35 CBL        -0.0190    0.8860   -5.2910 c2        1 881      0.044000
     36 CBM        -6.0400    0.9900  -13.6320 c2        1 881      0.048000
     37 CBN         2.7960    0.4920   -2.8520 c2        1 881      0.015000
     38 CBO        -6.8510    0.6920  -17.4970 c2        1 881     -0.052000
     39 CBP        -1.1690    0.6170   -7.4340 c2        1 881      0.099000
     40 CBQ        -4.3650    0.6340  -11.7540 c2        1 881     -0.115000
     41 CBR        -3.5460    1.3160   -7.6160 c2        1 881     -0.018000
     42 CBS        -4.8990    1.3640   -9.4330 c2        1 881     -0.072000
     43 CBT        -2.4200    1.1340   -6.8970 c2        1 881     -0.065000
     44 CBU        -5.2540    1.2040  -10.7280 c2        1 881     -0.020000
     45 CBV        11.7970   -3.3090    1.9830 c3        1 881     -0.207000
     46 CBW        10.4320   -1.7190   -3.1200 c2        1 881      0.288000
     47 HNAA       -0.4290   -0.4540   -2.9830 hn        1 881      0.218000
     48 HNAB       -1.2020    1.6700   -3.6680 ha        1 881      0.135000
     49 HNAC       -8.4390    3.5670  -15.9730 hn        1 881      0.149333
     50 HNAD       -9.4340    2.3360  -16.3280 hn        1 881      0.149333
     51 HAC         4.2470   -1.2120   -1.2220 ha        1 881      0.195000
     52 HAD        -4.3330    1.2940  -20.6320 ha        1 881      0.243000
     53 HAE         4.2350    0.8960   -4.3800 hc        1 881      0.172500
     54 HAF        -7.5560   -0.6300  -19.0540 ha        1 881      0.177000
     55 HAG         3.8110    1.1850   -1.3500 hn        1 881      0.155000
     56 HAH        -7.0860    2.6980  -17.9320 hn        1 881      0.281000
     57 HAI         3.5150   -0.7520   -4.4860 hc        1 881      0.172500
     58 HAJ        -7.3970   -1.3880  -17.3610 ha        1 881      0.177000
     59 HAK        -2.7770    2.5740   -5.3530 hc        1 881      0.102500
     60 HAL        -7.4220    1.0170  -10.6690 hc        1 881      0.185000
     61 HAM        -5.3360    1.2510   -6.3590 hc        1 881      0.176000
     62 HAN        -4.7450    2.9180   -6.7320 hc        1 881      0.176000
     63 HAO        -3.2280    0.8730   -4.9330 hc        1 881      0.102500
     64 HAP        -6.8200    2.7030  -10.9210 hc        1 881      0.185000
     65 HAQ        -2.5920   -1.2250   -9.7780 ha        1 881      0.229250
     66 HAR        -3.3800    0.2460  -11.4280 ha        1 881      0.239000
     67 HAS        13.8570   -2.8300    2.5100 hc        1 881      0.105667
     68 HASA       10.8130   -2.6480    0.0870 h4        1 881      0.236000
     69 HAT        11.3550   -2.4390    2.5530 hc        1 881      0.161000
     70 HATA       12.7510   -2.6230   -1.2010 hn        1 881      0.287500
     71 HAU         9.3740   -0.9130   -5.4150 h4        1 881      0.135000
     72 HAUA        0.8950    0.1220   -7.1530 ha        1 881      0.152000
     73 HAV         2.3600    1.1980   -9.0050 ha        1 881      0.229250
     74 HAVA        7.1690   -0.3800   -5.8450 hn        1 881      0.257500
     75 HAW        13.5740   -4.5690    2.0520 hc        1 881      0.105667
     76 HAWA       13.0050   -3.9440    3.6480 hc        1 881      0.105667
     77 HAX        11.0730   -4.1680    2.0970 hc        1 881      0.161000
     78 HAXA       -3.0200   -3.8310  -11.7970 ha        1 881      0.229250
     79 HAY        -0.0060   -2.2010   -8.7850 ha        1 881      0.001000
     80 HAYA       -0.6580   -2.3120   -8.9380 ha        1 881      0.001000
     81 HAZ         1.7880   -1.8090  -10.2910 ha        1 881      0.229250
     82 HAZA        8.3640   -1.5040   -2.4990 ha        1 881      0.145000
     83 HNBC       13.7680   -3.1320    0.0980 hn        1 881      0.287500
     84 HNBD        6.6010   -0.6870   -4.2450 hn        1 881      0.257500
     85 HBV        -0.3310    0.0080   -9.0490 ho        1 881      0.232000
     86 HBW        11.1270   -1.6180   -3.9880 h4        1 881      0.075000
     87 OBG        -1.2280    0.2520   -8.7610 oh        1 881     -0.267000
     88 OBH        10.8960   -2.0950   -2.0180 o         1 881     -0.498000
     89 HAA3        0.6840   -0.4860   -1.7270 hn        1 881      0.218000
     90 HAB3       -8.8670    2.5130  -14.8180 hn        1 881      0.149333
     91 NBF        -6.3110    0.8870  -14.9680 n2        1 881      0.033000
@<TRIPOS>BOND
     1    1   33 1
     2    1   47 1
     3    1   89 1
     4    2   49 1
     5    2   50 1
     6    2   90 1
     7    3    5 1
     8    3    7 1
     9    3   51 1
    10    4    6 1
    11    4    8 1
    12    4   52 1
    13    5    9 1
    14    8   28 1
    15    9   37 1
    16    9   53 1
    17    9   57 1
    18   10   38 1
    19   10   54 1
    20   10   58 1
    21   11   15 1
    22   11   35 1
    23   11   48 1
    24   12   16 1
    25   12   36 1
    26   13   14 1
    27   13   41 1
    28   13   61 1
    29   13   62 1
    30   14   42 1
    31   15   43 1
    32   15   59 1
    33   15   63 1
    34   16   44 1
    35   16   60 1
    36   16   64 1
    37   17   35 1
    38   17   39 1
    39   17   72 1
    40   18   36 1
    41   18   40 1
    42   19   29 1
    43   19   45 1
    44   19   68 1
    45   20   24 1
    46   20   65 1
    47   21   25 1
    48   21   30 1
    49   21   71 1
    50   22   26 1
    51   22   73 1
    52   23   45 1
    53   23   67 1
    54   23   75 1
    55   23   76 1
    56   24   78 1
    57   25   46 1
    58   25   82 1
    59   26   81 1
    60   27   37 1
    61   27   55 1
    62   28   38 1
    63   28   56 1
    64   29   70 1
    65   29   83 1
    66   30   74 1
    67   30   84 1
    68   31   33 1
    69   31   35 1
    70   32   41 1
    71   32   42 1
    72   33   37 1
    73   34   38 1
    74   34   91 1
    75   36   91 1
    76   39   43 1
    77   39   87 1
    78   40   44 1
    79   40   66 1
    80   41   43 1
    81   42   44 1
    82   45   69 1
    83   45   77 1
    84   46   86 1
    85   46   88 1
    86   79   80 1
    87   85   87 1
@<TRIPOS>SUBSTRUCTURE
     1 881         1 TEMP              0 ****  ****    0 ROOT
