@<TRIPOS>MOLECULE
molecule
   75    78     1     0     0
SMALL
bcc


@<TRIPOS>ATOM
      1 N1           0.0000     0.0000     0.0000 na         1 882      -0.046100
      2 C4           1.3550     0.0000     0.0000 cc         1 882      -0.057600
      3 C5           1.8010     0.0000     1.2870 cd         1 882      -0.132000
      4 C6          -0.8500    -0.0060    -1.1940 c3         1 882       0.040000
      5 C7           2.2290     0.0010    -1.2280 c3         1 882      -0.028100
      6 C8           2.5240     1.4440    -1.6430 c3         1 882      -0.095400
      7 C10          3.8090     2.8810    -3.2320 c3         1 882      -0.271400
      8 C13         -1.8390    -1.1690    -1.1090 c3         1 882      -0.151600
      9 C15          5.3550    -1.0860     1.8530 ca         1 882      -0.188500
     10 C17         -5.2720     0.9690     0.9510 ca         1 882      -0.079500
     11 C20         -6.4200     1.2150     1.7580 ca         1 882      -0.144500
     12 C21          3.7350     1.0930     2.4180 ca         1 882      -0.095000
     13 C22          0.5810    -0.0020     5.5210 ca         1 882      -0.249000
     14 C24          5.0550     1.0900     2.8240 ca         1 882      -0.188500
     15 C26         -5.1180    -1.5010     1.3360 ca         1 882      -0.079500
     16 C28          0.9130    -1.1940     6.1600 ca         1 882       0.201900
     17 O7           6.9550     5.3300    -6.1140 o          1 882      -0.779300
     18 O6           7.1610     3.1220    -5.5990 o          1 882      -0.779300
     19 C35          5.2090     4.1930    -4.5590 c3         1 882      -0.497400
     20 C11          4.7910     2.7820    -4.5400 c3         1 882       0.458100
     21 O3           4.5000     2.4240    -5.3660 oh         1 882      -0.409800
     22 C9           3.4110     1.4440    -2.8900 c3         1 882       0.142100
     23 O4           2.6930     0.8740    -3.9860 oh         1 882      -0.611800
     24 C27          3.2190     0.0000     1.7250 ca         1 882       0.039000
     25 C30          5.8650     0.0020     2.5410 ca         1 882       0.121900
     26 F1           7.1610    -0.0100     2.9210 f          1 882      -0.148900
     27 C18          4.0380    -1.0910     1.4440 ca         1 882      -0.095000
     28 C14         -1.7510     1.1640    -1.1770 c3         1 882      -0.151600
     29 C2          -0.4520    -0.0010     1.3010 cc         1 882      -0.070900
     30 C1           0.6620    -0.0010     2.1330 cd         1 882      -0.014000
     31 C31          0.8030    -0.5750     3.2060 ca         1 882      -0.037000
     32 C25          0.5210     0.3310     3.9930 ca         1 882      -0.039500
     33 C19          1.2240    -2.1900     5.2660 ca         1 882      -0.249000
     34 C16          1.1740    -1.8980     3.7840 ca         1 882      -0.039500
     35 C3          -2.0870    -0.2660     1.4360 c          1 882       0.623700
     36 O1          -2.5710    -0.4170     2.8100 o          1 882      -0.674100
     37 N2          -3.2010    -0.2110     0.5360 ns         1 882      -0.489100
     38 C32         -4.6250    -0.4280     0.7510 ca         1 882      -0.006400
     39 C23         -6.2310    -1.5420     2.1740 ca         1 882      -0.144500
     40 C29         -6.7680    -0.0590     2.2750 ca         1 882      -0.095000
     41 H6          -0.2490    -0.0160    -2.0950 h1         1 882       0.106700
     42 H71          3.0860    -0.6410    -1.0620 hc         1 882       0.055700
     43 H72          1.6620    -0.3650    -2.0750 hc         1 882       0.055700
     44 H81          3.0930     1.9350    -0.8640 hc         1 882       0.052200
     45 H82          1.5910     1.9730    -1.7980 hc         1 882       0.052200
     46 H101         2.9280     3.4650    -3.4710 hc         1 882       0.045200
     47 H102         4.3390     3.3290    -2.4010 hc         1 882       0.045200
     48 H131        -1.9790    -1.4500    -0.0730 hc         1 882       0.060533
     49 H132        -2.7890    -0.8670    -1.5330 hc         1 882       0.060533
     50 H133        -1.4500    -2.0150    -1.6630 hc         1 882       0.060533
     51 H15          6.0040    -1.9300     1.6510 ha         1 882       0.140500
     52 H17         -4.9580     1.7470     0.2660 ha         1 882       0.120500
     53 H20         -7.0780     2.0440     1.5260 ha         1 882       0.172500
     54 H21          3.5300     2.1440     2.5840 ha         1 882       0.150000
     55 H22          0.2630     0.7590     6.2230 ha         1 882       0.124000
     56 H24          5.4820     1.9300     3.3580 ha         1 882       0.140500
     57 H26         -4.5390    -2.4150     1.2760 ha         1 882       0.120500
     58 H351         4.4150     4.8240    -4.9410 hc         1 882       0.020200
     59 H352         5.5170     4.5160    -3.5720 hc         1 882       0.020200
     60 H11          5.6530     2.1990    -4.2420 h1         1 882      -0.127300
     61 HO3          5.1130     1.7700    -5.6580 ho         1 882       0.420000
     62 H9           4.3020     0.8590    -2.6990 h1         1 882       0.026700
     63 HO4          3.0560     0.0290    -4.1940 ho         1 882       0.381000
     64 H18          3.9570    -2.0860     1.0240 ha         1 882       0.150000
     65 H141        -2.6550     0.9320    -1.7270 hc         1 882       0.060533
     66 H142        -1.2540     2.0090    -1.6400 hc         1 882       0.060533
     67 H143        -2.0040     1.4110    -0.1530 hc         1 882       0.060533
     68 H25          0.2380     1.3240     3.6660 ha         1 882       0.137000
     69 H19          1.5530    -3.1580     5.6240 ha         1 882       0.124000
     70 H16          1.6470    -2.6210     3.1290 ha         1 882       0.137000
     71 HN2         -3.0310    -0.0960    -0.4440 hn         1 882       0.329500
     72 H23         -6.3280    -2.3330     2.9080 ha         1 882       0.172500
     73 H29         -7.7040    -0.0200     2.8190 ha         1 882       0.087000
     74 C36          6.6530     4.1750    -5.7270 c          1 882       0.973600
     75 F2           0.7200    -1.1230     7.2970 f          1 882      -0.080900
@<TRIPOS>BOND
     1     1    29 1   
     2     1     2 1   
     3     1     4 1   
     4     2     3 2   
     5     2     5 1   
     6     3    24 1   
     7     3    30 1   
     8     4     8 1   
     9     4    28 1   
    10     4    41 1   
    11     5     6 1   
    12     5    42 1   
    13     5    43 1   
    14     6    22 1   
    15     6    44 1   
    16     6    45 1   
    17     7    20 1   
    18     7    22 1   
    19     7    46 1   
    20     7    47 1   
    21     8    48 1   
    22     8    49 1   
    23     8    50 1   
    24     9    25 ar  
    25     9    27 ar  
    26     9    51 1   
    27    10    38 ar  
    28    10    11 ar  
    29    10    52 1   
    30    11    40 ar  
    31    11    53 1   
    32    12    14 ar  
    33    12    24 ar  
    34    12    54 1   
    35    13    16 ar  
    36    13    32 ar  
    37    13    55 1   
    38    14    25 ar  
    39    14    56 1   
    40    15    38 ar  
    41    15    39 ar  
    42    15    57 1   
    43    16    75 1   
    44    16    33 ar  
    45    17    74 1   
    46    74    18 1   
    47    74    19 1   
    48    19    20 1   
    49    19    58 1   
    50    19    59 1   
    51    20    21 1   
    52    20    60 1   
    53    21    61 1   
    54    22    23 1   
    55    22    62 1   
    56    23    63 1   
    57    24    27 ar  
    58    25    26 1   
    59    27    64 1   
    60    28    65 1   
    61    28    66 1   
    62    28    67 1   
    63    29    30 2   
    64    29    35 1   
    65    30    31 1   
    66    31    32 ar  
    67    31    34 ar  
    68    32    68 1   
    69    33    34 ar  
    70    33    69 1   
    71    34    70 1   
    72    35    37 1   
    73    35    36 2   
    74    37    38 1   
    75    37    71 1   
    76    39    40 ar  
    77    39    72 1   
    78    40    73 1   
@<TRIPOS>SUBSTRUCTURE
     1 882         1 TEMP              0 ****  ****    0 ROOT
