@<TRIPOS>MOLECULE
molecule
   44    47     1     0     0
SMALL
bcc


@<TRIPOS>ATOM
      1 C1           0.0000     0.0000     0.0000 c3         1 883      -0.114100
      2 C2           1.5300     0.0000     0.0000 c3         1 883       0.126000
      3 N3           2.0180     0.0000     1.3810 ns         1 883      -0.591900
      4 C4           3.3430    -0.0000     1.6270 c          1 883       0.789100
      5 O5           4.1340    -0.0000     0.7030 o          1 883      -0.656100
      6 N6           3.7930    -0.0010     2.8980 ns         1 883      -0.471400
      7 C7           5.1540    -0.0020     3.1510 cc         1 883       0.508400
      8 N8           5.6970    -0.0030     4.3410 nd         1 883      -0.655100
      9 C9           7.0520    -0.0030     4.2230 ca         1 883       0.096400
     10 C10          8.0930    -0.0040     5.1520 ca         1 883      -0.045000
     11 C11          9.4120    -0.0050     4.7160 cp         1 883      -0.075000
     12 C12          9.7040    -0.0040     3.3520 ca         1 883      -0.062000
     13 C13          8.6760    -0.0020     2.4180 cp         1 883      -0.137500
     14 C14          8.9880    -0.0000     0.9690 cp         1 883       0.748500
     15 N15         10.2560    -0.0010     0.5800 nb         1 883      -0.742500
     16 C16         10.5680     0.0010    -0.7050 ca         1 883       0.467700
     17 C17          9.5520     0.0020    -1.6480 ca         1 883      -0.394600
     18 C18          8.2370     0.0030    -1.2070 ca         1 883       0.467700
     19 N19          7.9920    -0.0040     0.0920 nb         1 883      -0.742500
     20 C20          7.3450    -0.0020     2.8490 ca         1 883      -0.048200
     21 N21          6.1300    -0.0060     2.1950 na         1 883      -0.236300
     22 C23         10.5160    -0.0060     5.7070 cp         1 883      -0.116300
     23 C24         11.8450    -0.0020     5.2870 ca         1 883       0.405200
     24 N25         12.8270    -0.0030     6.1650 nb         1 883      -0.661000
     25 C26         12.6010    -0.0090     7.4640 ca         1 883       0.379200
     26 C27         11.3080    -0.0140     7.9620 ca         1 883       0.013600
     27 F28         11.0900    -0.0200     9.2950 f          1 883      -0.135900
     28 C29         10.2410    -0.0080     7.0770 ca         1 883      -0.136000
     29 H1          -0.3610     0.8860     0.5070 hc         1 883       0.045700
     30 H2          -0.3610    -0.8830     0.5140 hc         1 883       0.045700
     31 H3          -0.3610    -0.0040    -1.0210 hc         1 883       0.045700
     32 H4           1.8910    -0.8850    -0.5110 h1         1 883       0.056700
     33 H5           1.8910     0.8850    -0.5110 h1         1 883       0.056700
     34 H6           1.3680     0.0130     2.1420 hn         1 883       0.315500
     35 H7           3.1430    -0.0010     3.6590 hn         1 883       0.348500
     36 H9           7.8730    -0.0050     6.2130 ha         1 883       0.145000
     37 H10         10.7360    -0.0040     3.0210 ha         1 883       0.160000
     38 H11         11.6060     0.0010    -1.0170 h4         1 883       0.032100
     39 H12          9.7800     0.0060    -2.7070 ha         1 883       0.147000
     40 H13          7.4200     0.0020    -1.9190 h4         1 883       0.032100
     41 H14          5.9900    -0.1400     1.2130 hn         1 883       0.362700
     42 H15         12.0720     0.0030     4.2280 h4         1 883       0.035100
     43 H16         13.4380    -0.0100     8.1510 h4         1 883       0.035100
     44 H17          9.2190    -0.0120     7.4380 ha         1 883       0.157000
@<TRIPOS>BOND
     1    17    16 ar  
     2    17    18 ar  
     3    16    15 ar  
     4    18    19 ar  
     5    15    14 ar  
     6    19    14 ar  
     7    14    13 1   
     8     5     4 2   
     9     2     1 1   
    10     2     3 1   
    11    13    12 ar  
    12    13    20 ar  
    13     4     3 1   
    14     4     6 1   
    15    21    20 1   
    16    21     7 1   
    17    12    11 ar  
    18    20     9 ar  
    19     7     6 1   
    20     7     8 2   
    21    11    22 1   
    22    11    10 ar  
    23     9     8 1   
    24     9    10 ar  
    25    23    22 ar  
    26    23    24 ar  
    27    22    28 ar  
    28    24    25 ar  
    29    28    26 ar  
    30    25    26 ar  
    31    26    27 1   
    32     1    29 1   
    33     1    30 1   
    34     1    31 1   
    35     2    32 1   
    36     2    33 1   
    37     3    34 1   
    38     6    35 1   
    39    10    36 1   
    40    12    37 1   
    41    16    38 1   
    42    17    39 1   
    43    18    40 1   
    44    21    41 1   
    45    23    42 1   
    46    25    43 1   
    47    28    44 1   
@<TRIPOS>SUBSTRUCTURE
     1 883         1 TEMP              0 ****  ****    0 ROOT
