@<TRIPOS>MOLECULE
883
   44    47     1     0     0
SMALL
bcc


@<TRIPOS>ATOM
      1 C1           0.0000     0.0000     0.0000 c3         1 883      -0.008100
      2 C2           1.5300     0.0000     0.0000 c3         1 883       0.063000
      3 N3           2.0180     0.0000     1.3810 ns         1 883      -0.201900
      4 C4           3.3430    -0.0000     1.6270 c          1 883       0.562100
      5 O5           4.1340    -0.0000     0.7030 o          1 883      -0.716100
      6 N6           3.7930    -0.0010     2.8980 ns         1 883      -0.012400
      7 C7           5.1540    -0.0020     3.1510 cc         1 883       0.155400
      8 N8           5.6970    -0.0030     4.3410 nd         1 883      -0.579100
      9 C9           7.0520    -0.0030     4.2230 ca         1 883       0.067400
     10 C10          8.0930    -0.0040     5.1520 ca         1 883      -0.017000
     11 C11          9.4120    -0.0050     4.7160 cp         1 883      -0.075000
     12 C12          9.7040    -0.0040     3.3520 ca         1 883      -0.048000
     13 C13          8.6760    -0.0020     2.4180 cp         1 883      -0.141500
     14 C14          8.9880    -0.0000     0.9690 cp         1 883       0.670500
     15 N15         10.2560    -0.0010     0.5800 nb         1 883      -0.631500
     16 C16         10.5680     0.0010    -0.7050 ca         1 883       0.453200
     17 C17          9.5520     0.0020    -1.6480 ca         1 883      -0.360600
     18 C18          8.2370     0.0030    -1.2070 ca         1 883       0.453200
     19 N19          7.9920    -0.0040     0.0920 nb         1 883      -0.631500
     20 C20          7.3450    -0.0020     2.8490 ca         1 883      -0.227200
     21 N21          6.1300    -0.0060     2.1950 na         1 883       0.267700
     22 C23         10.5160    -0.0060     5.7070 cp         1 883      -0.103300
     23 C24         11.8450    -0.0020     5.2870 ca         1 883       0.381200
     24 N25         12.8270    -0.0030     6.1650 nb         1 883      -0.552000
     25 C26         12.6010    -0.0090     7.4640 ca         1 883       0.365200
     26 C27         11.3080    -0.0140     7.9620 ca         1 883      -0.007400
     27 F28         11.0900    -0.0200     9.2950 f          1 883      -0.122900
     28 C29         10.2410    -0.0080     7.0770 ca         1 883      -0.113000
     29 H1          -0.3610     0.8860     0.5070 hc         1 883       0.009700
     30 H2          -0.3610    -0.8830     0.5140 hc         1 883       0.009700
     31 H3          -0.3610    -0.0040    -1.0210 hc         1 883       0.009700
     32 H4           1.8910    -0.8850    -0.5110 h1         1 883       0.026700
     33 H5           1.8910     0.8850    -0.5110 h1         1 883       0.026700
     34 H6           1.3680     0.0130     2.1420 hn         1 883       0.173500
     35 H7           3.1430    -0.0010     3.6590 hn         1 883       0.177500
     36 H9           7.8730    -0.0050     6.2130 ha         1 883       0.115000
     37 H10         10.7360    -0.0040     3.0210 ha         1 883       0.133000
     38 H11         11.6060     0.0010    -1.0170 h4         1 883      -0.012900
     39 H12          9.7800     0.0060    -2.7070 ha         1 883       0.124000
     40 H13          7.4200     0.0020    -1.9190 h4         1 883      -0.012900
     41 H14          5.9900    -0.1400     1.2130 hn         1 883       0.206700
     42 H15         12.0720     0.0030     4.2280 h4         1 883      -0.003900
     43 H16         13.4380    -0.0100     8.1510 h4         1 883      -0.007900
     44 H17          9.2190    -0.0120     7.4380 ha         1 883       0.134000
@<TRIPOS>BOND
     1     1     2 1   
     2     1    29 1   
     3     1    30 1   
     4     1    31 1   
     5     2     3 1   
     6     2    32 1   
     7     2    33 1   
     8     3     4 1   
     9     3    34 1   
    10     4     5 2   
    11     4     6 1   
    12     6     7 1   
    13     6    35 1   
    14     7     8 2   
    15     7    21 1   
    16     8     9 1   
    17     9    10 ar  
    18     9    20 ar  
    19    10    11 ar  
    20    10    36 1   
    21    11    12 ar  
    22    11    22 1   
    23    12    13 ar  
    24    12    37 1   
    25    13    14 1   
    26    13    20 ar  
    27    14    15 ar  
    28    14    19 ar  
    29    15    16 ar  
    30    16    17 ar  
    31    16    38 1   
    32    17    18 ar  
    33    17    39 1   
    34    18    19 ar  
    35    18    40 1   
    36    20    21 1   
    37    21    41 1   
    38    22    23 ar  
    39    22    28 ar  
    40    23    24 ar  
    41    23    42 1   
    42    24    25 ar  
    43    25    26 ar  
    44    25    43 1   
    45    26    27 1   
    46    26    28 ar  
    47    28    44 1   
@<TRIPOS>SUBSTRUCTURE
     1 883         1 TEMP              0 ****  ****    0 ROOT
