@<TRIPOS>MOLECULE
molecule
   34    35     1     0     0
SMALL
bcc


@<TRIPOS>ATOM
      1 C1           0.0000     0.0000     0.0000 c3         1 885      -0.041800
      2 C2           1.5070     0.0000     0.0000 ca         1 885      -0.131300
      3 C3           2.1970     0.0000     1.1990 ca         1 885      -0.015000
      4 C4           3.5770     0.0010     1.2030 ca         1 885      -0.332500
      5 C5           4.2750     0.0010     0.0020 ca         1 885       0.282600
      6 C6           3.5810     0.0010    -1.2010 ca         1 885      -0.184000
      7 C7           2.1990    -0.0050    -1.1990 ca         1 885       0.076400
      8 Cl           1.3290    -0.0070    -2.7010 cl         1 885      -0.135400
      9 N1           5.6710     0.0010     0.0040 nv         1 885      -0.981200
     10 S1           4.4540     0.0020     2.7320 sy         1 885       1.463200
     11 O1           5.4680    -0.9830     2.5960 o          1 885      -0.626300
     12 O2           3.4600     0.0250     3.7470 o          1 885      -0.626300
     13 N2           5.2470     1.4510     2.8470 n3         1 885      -0.793500
     14 C8           4.6580     2.7190     3.3150 c3         1 885       0.247800
     15 C9           5.5330     3.8240     2.6720 c3         1 885      -0.110400
     16 C10          6.9440     3.1820     2.7410 c3         1 885      -0.060400
     17 C11          6.6580     1.6850     2.5050 c3         1 885       0.140500
     18 C12          7.5540     0.8470     3.3790 c          1 885       0.886600
     19 O3           8.8870     0.9170     3.2370 o          1 885      -0.832800
     20 O4           7.0730     0.1120     4.2080 o          1 885      -0.832800
     21 H11A        -0.3610     0.8920    -0.4970 hc         1 885       0.041367
     22 H12         -0.3610    -0.8770    -0.5240 hc         1 885       0.041367
     23 H13         -0.3610    -0.0150     1.0210 hc         1 885       0.041367
     24 H3           1.6530     0.0000     2.1360 ha         1 885       0.159000
     25 H6           4.1220    -0.0020    -2.1390 ha         1 885       0.142000
     26 HN11         6.1710    -0.8220     0.2760 hn         1 885       0.452800
     27 HN12         6.1710     0.7990    -0.3350 hn         1 885       0.452800
     28 H81          4.7080     2.7810     4.3950 h1         1 885       0.034200
     29 H82          3.6330     2.8060     2.9730 h1         1 885       0.034200
     30 H91          5.2400     4.0000     1.6440 hc         1 885       0.032200
     31 H92          5.4950     4.7350     3.2570 hc         1 885       0.032200
     32 H101         7.5820     3.5770     1.9590 hc         1 885       0.052700
     33 H102         7.3860     3.3360     3.7190 hc         1 885       0.052700
     34 H11          6.8250     1.4430     1.4620 h1         1 885       0.034700
@<TRIPOS>BOND
     1     1     2 1   
     2     1    21 1   
     3     1    22 1   
     4     1    23 1   
     5     2     3 ar  
     6     2     7 ar  
     7     3     4 ar  
     8     3    24 1   
     9     4     5 ar  
    10     4    10 1   
    11     5     6 ar  
    12     5     9 1   
    13     6     7 ar  
    14     6    25 1   
    15     7     8 1   
    16     9    26 1   
    17     9    27 1   
    18    10    11 2   
    19    10    12 2   
    20    10    13 1   
    21    13    14 1   
    22    13    17 1   
    23    14    15 1   
    24    14    28 1   
    25    14    29 1   
    26    15    16 1   
    27    15    30 1   
    28    15    31 1   
    29    16    17 1   
    30    16    32 1   
    31    16    33 1   
    32    17    18 1   
    33    17    34 1   
    34    18    19 1   
    35    18    20 1   
@<TRIPOS>SUBSTRUCTURE
     1 885         1 TEMP              0 ****  ****    0 ROOT
