@<TRIPOS>MOLECULE
886
   66    68     1     0     0
SMALL
bcc


@<TRIPOS>ATOM
      1 C1           0.0000     0.0000     0.0000 c3         1 886      -0.001600
      2 C2           1.5300     0.0000     0.0000 c3         1 886      -0.039700
      3 C3           2.0390     0.0000     1.4430 c3         1 886      -0.001600
      4 C4           2.0400    -1.2490    -0.7200 c3         1 886       0.087500
      5 C5           3.5470    -1.2490    -0.7210 c          1 886       0.968600
      6 O1           4.1520    -1.2490    -1.7660 o          1 886      -0.883300
      7 O2           4.2180    -1.2490     0.4430 o          1 886      -0.883300
      8 N1           1.5530    -1.2490    -2.1020 n7         1 886      -0.522100
      9 S1           1.1590    -2.6770    -2.8420 sy         1 886       1.023200
     10 O3           0.6930    -2.3410    -4.1420 o          1 886      -0.592300
     11 O4           2.2460    -3.5620    -2.6090 o          1 886      -0.592300
     12 C6          -0.2220    -3.3490    -1.9780 ca         1 886      -0.142500
     13 C7          -0.0180    -4.1920    -0.9010 ca         1 886       0.008000
     14 C8          -1.0950    -4.7170    -0.2170 ca         1 886      -0.137000
     15 C9          -2.3920    -4.3940    -0.6120 cp         1 886      -0.011000
     16 C10         -2.5920    -3.5430    -1.6980 ca         1 886      -0.137000
     17 C11         -1.5070    -3.0250    -2.3740 ca         1 886       0.008000
     18 C12         -3.5550    -4.9550     0.1190 cp         1 886      -0.008000
     19 C13         -4.8520    -4.6330    -0.2770 ca         1 886      -0.103000
     20 C14         -5.9300    -5.1570     0.4070 ca         1 886      -0.074000
     21 C15         -5.7240    -6.0020     1.4840 ca         1 886      -0.129300
     22 C16         -4.4390    -6.3240     1.8820 ca         1 886      -0.074000
     23 C17         -3.3540    -5.8110     1.2010 ca         1 886      -0.103000
     24 C18         -6.9050    -6.5710     2.2270 c3         1 886       0.264700
     25 O5          -7.2890    -7.8110     1.6320 os         1 886      -0.295900
     26 C19         -8.3450    -8.4600     2.1860 ca         1 886       0.189100
     27 C20         -9.0030    -7.9060     3.2790 ca         1 886      -0.199000
     28 C21        -10.0700    -8.5560     3.8420 ca         1 886      -0.006000
     29 C22        -10.4980    -9.7810     3.3150 ca         1 886      -0.243600
     30 C23         -9.8330   -10.3350     2.2130 ca         1 886      -0.006000
     31 C24         -8.7700    -9.6730     1.6550 ca         1 886      -0.199000
     32 C25        -11.6400   -10.4820     3.9140 c          1 886       0.640700
     33 O6         -12.2150   -10.0010     4.8680 o          1 886      -0.569100
     34 C26        -12.0990   -11.8000     3.3440 c3         1 886      -0.150700
     35 C27        -12.8210   -12.6020     4.4290 c3         1 886       0.015900
     36 C28        -13.0550   -11.5460     2.1770 c3         1 886       0.015900
     37 H11         -0.3610     0.0530    -1.0200 hc         1 886       0.000367
     38 H12         -0.3610     0.8570     0.5560 hc         1 886       0.000367
     39 H13         -0.3610    -0.9100     0.4640 hc         1 886       0.000367
     40 H21          1.8920     0.8840    -0.5110 hc         1 886       0.022700
     41 H31          3.0300     0.4370     1.4760 hc         1 886       0.000367
     42 H32          1.3680     0.5810     2.0630 hc         1 886       0.000367
     43 H33          2.0810    -1.0180     1.8110 hc         1 886       0.000367
     44 H41          1.6790    -2.1340    -0.2100 h1         1 886       0.024700
     45 H1N1         1.5010    -0.3900    -2.6130 hn         1 886       0.340800
     46 H71          0.9910    -4.4420    -0.5940 ha         1 886       0.129500
     47 H81         -0.9330    -5.3770     0.6260 ha         1 886       0.109000
     48 H101        -3.5980    -3.2890    -2.0100 ha         1 886       0.109000
     49 H111        -1.6610    -2.3640    -3.2180 ha         1 886       0.129500
     50 H131        -5.0130    -3.9730    -1.1200 ha         1 886       0.118000
     51 H141        -6.9380    -4.9080     0.1000 ha         1 886       0.103000
     52 H161        -4.2840    -6.9870     2.7240 ha         1 886       0.103000
     53 H171        -2.3480    -6.0640     1.5130 ha         1 886       0.118000
     54 H181        -7.7330    -5.8740     2.1770 h1         1 886       0.004700
     55 H182        -6.6350    -6.7350     3.2630 h1         1 886       0.004700
     56 H201        -8.6710    -6.9590     3.6860 ha         1 886       0.123500
     57 H211       -10.5810    -8.1240     4.6940 ha         1 886       0.114500
     58 H231       -10.1610   -11.2810     1.8000 ha         1 886       0.114500
     59 H241        -8.2550   -10.0990     0.8030 ha         1 886       0.123500
     60 H261       -11.2410   -12.3590     2.9920 hc         1 886       0.039700
     61 H271       -13.6940   -12.0540     4.7620 hc         1 886       0.007700
     62 H272       -12.1520   -12.7600     5.2670 hc         1 886       0.007700
     63 H273       -13.1270   -13.5600     4.0260 hc         1 886       0.007700
     64 H281       -13.4010   -12.4930     1.7810 hc         1 886       0.007700
     65 H282       -12.5380   -10.9970     1.3990 hc         1 886       0.007700
     66 H283       -13.9030   -10.9680     2.5240 hc         1 886       0.007700
@<TRIPOS>BOND
     1     1     2 1   
     2     1    37 1   
     3     1    38 1   
     4     1    39 1   
     5     2     3 1   
     6     2     4 1   
     7     2    40 1   
     8     3    41 1   
     9     3    42 1   
    10     3    43 1   
    11     4     5 1   
    12     4     8 1   
    13     4    44 1   
    14     5     6 1   
    15     5     7 1   
    16     8     9 1   
    17     8    45 1   
    18     9    10 2   
    19     9    11 2   
    20     9    12 1   
    21    12    13 ar  
    22    12    17 ar  
    23    13    14 ar  
    24    13    46 1   
    25    14    15 ar  
    26    14    47 1   
    27    15    16 ar  
    28    15    18 1   
    29    16    17 ar  
    30    16    48 1   
    31    17    49 1   
    32    18    19 ar  
    33    18    23 ar  
    34    19    20 ar  
    35    19    50 1   
    36    20    21 ar  
    37    20    51 1   
    38    21    22 ar  
    39    21    24 1   
    40    22    23 ar  
    41    22    52 1   
    42    23    53 1   
    43    24    25 1   
    44    24    54 1   
    45    24    55 1   
    46    25    26 1   
    47    26    27 ar  
    48    26    31 ar  
    49    27    28 ar  
    50    27    56 1   
    51    28    29 ar  
    52    28    57 1   
    53    29    30 ar  
    54    29    32 1   
    55    30    31 ar  
    56    30    58 1   
    57    31    59 1   
    58    32    33 2   
    59    32    34 1   
    60    34    35 1   
    61    34    36 1   
    62    34    60 1   
    63    35    61 1   
    64    35    62 1   
    65    35    63 1   
    66    36    64 1   
    67    36    65 1   
    68    36    66 1   
@<TRIPOS>SUBSTRUCTURE
     1 886         1 TEMP              0 ****  ****    0 ROOT
