@<TRIPOS>MOLECULE
molecule
   53    57     1     0     0
SMALL
bcc


@<TRIPOS>ATOM
      1 C1           0.0000     0.0000     0.0000 ca         1 887       0.105100
      2 C2           1.3660     0.0000     0.0000 ca         1 887      -0.128000
      3 C3           2.0600     0.0000     1.2220 ca         1 887      -0.036000
      4 C4           1.3300     0.0000     2.4350 ca         1 887      -0.002000
      5 C5          -0.0720    -0.0000     2.3980 ca         1 887      -0.105000
      6 C6          -0.7170     0.0010     1.1990 ca         1 887      -0.152000
      7 C10          3.4650    -0.0000     1.2600 ca         1 887      -0.085000
      8 C11          4.1180    -0.0010     2.4550 ca         1 887      -0.138000
      9 C12          3.4190    -0.0010     3.6550 ca         1 887      -0.094000
     10 C13          2.0320     0.0000     3.6670 ca         1 887      -0.133600
     11 O17         -0.6700     0.0060    -1.1830 os         1 887      -0.243200
     12 C18         -1.3860     1.1110    -1.5030 ca         1 887       0.181100
     13 C19         -2.2090     1.1390    -2.6510 ca         1 887      -0.163300
     14 C20         -2.9390     2.3180    -2.9430 ca         1 887       0.456600
     15 N21         -2.8400     3.3810    -2.1370 nb         1 887      -0.711000
     16 C22         -2.0790     3.3670    -1.0690 ca         1 887       0.462200
     17 C23         -1.3380     2.2470    -0.7120 ca         1 887      -0.354300
     18 C26         -2.3130     0.0260    -3.4980 ca         1 887      -0.177000
     19 C27         -3.1190     0.0880    -4.5990 ca         1 887       0.121100
     20 C28         -3.8410     1.2530    -4.8910 ca         1 887       0.153100
     21 C29         -3.7590     2.3500    -4.0840 ca         1 887      -0.263300
     22 O32         -3.2190    -0.9910    -5.4200 os         1 887      -0.313900
     23 O33         -4.6360     1.2900    -5.9930 os         1 887      -0.311900
     24 C34         -5.3480     2.5040    -6.2390 c3         1 887       0.124700
     25 C38         -2.4570    -2.1480    -5.0690 c3         1 887       0.125700
     26 C42          1.2960     0.0010     4.9450 c          1 887       0.686700
     27 N43          1.9650     0.1290     6.1070 ns         1 887      -0.546900
     28 C44          1.2340     0.1290     7.3770 cx         1 887       0.056700
     29 O45          0.0860    -0.1160     4.9490 o          1 887      -0.614100
     30 C46          1.9960    -0.3050     8.6300 cx         1 887      -0.155400
     31 C47          1.6380     1.1680     8.4240 cx         1 887      -0.155400
     32 H2           1.9110    -0.0000    -0.9360 ha         1 887       0.148000
     33 H5          -0.6400    -0.0000     3.3210 ha         1 887       0.202000
     34 H6          -1.8000     0.0000     1.1750 ha         1 887       0.149000
     35 H10          4.0300    -0.0000     0.3350 ha         1 887       0.138000
     36 H11          5.2010    -0.0020     2.4700 ha         1 887       0.135000
     37 H12          3.9630    -0.0010     4.5920 ha         1 887       0.124000
     38 H22         -2.0330     4.2500    -0.4430 h4         1 887       0.023100
     39 H23         -0.7180     2.2650     0.1760 ha         1 887       0.152000
     40 H26         -1.7580    -0.8790    -3.2800 ha         1 887       0.157000
     41 H29         -4.3230     3.2430    -4.3220 ha         1 887       0.161000
     42 H341        -5.9960     2.7200    -5.3980 h1         1 887       0.044700
     43 H342        -4.6430     3.3160    -6.3690 h1         1 887       0.044700
     44 H343        -5.9450     2.3970    -7.1370 h1         1 887       0.044700
     45 H381        -2.5540    -2.8940    -5.8480 h1         1 887       0.042700
     46 H382        -2.8250    -2.5520    -4.1340 h1         1 887       0.042700
     47 H383        -1.4150    -1.8740    -4.9590 h1         1 887       0.042700
     48 H43          2.9610     0.2320     6.1030 hn         1 887       0.319500
     49 H44          0.1820    -0.1270     7.3740 h1         1 887       0.125700
     50 H461         1.4100    -0.8290     9.3760 hc         1 887       0.078450
     51 H462         3.0380    -0.5590     8.4800 hc         1 887       0.078450
     52 H471         0.8330     1.5440     9.0440 hc         1 887       0.078450
     53 H472         2.4620     1.8150     8.1480 hc         1 887       0.078450
@<TRIPOS>BOND
     1    24    23 1
     2    23    20 1
     3    22    19 1
     4    22    25 1
     5    20    19 ar
     6    20    21 ar
     7    19    18 ar
     8    21    14 ar
     9    18    13 ar
    10    14    13 ar
    11    14    15 ar
    12    13    12 ar
    13    15    16 ar
    14    12    11 1
    15    12    17 ar
    16    16    17 ar
    17    11     1 1
    18     2     1 ar
    19     2     3 ar
    20     1     6 ar
    21     7     3 ar
    22     7     8 ar
    23     3     4 ar
    24     6     5 ar
    25     8     9 ar
    26     4     5 ar
    27     4    10 ar
    28     9    10 ar
    29    10    26 1
    30    26    29 2
    31    26    27 1
    32    27    28 1
    33    28    30 1
    34    28    31 1
    35    30    31 1
    36     2    32 1
    37     5    33 1
    38     6    34 1
    39     7    35 1
    40     8    36 1
    41     9    37 1
    42    16    38 1
    43    17    39 1
    44    18    40 1
    45    21    41 1
    46    24    42 1
    47    24    43 1
    48    24    44 1
    49    25    45 1
    50    25    46 1
    51    25    47 1
    52    27    48 1
    53    28    49 1
    54    30    50 1
    55    30    51 1
    56    31    52 1
    57    31    53 1
@<TRIPOS>SUBSTRUCTURE
     1 887         1 TEMP              0 ****  ****    0 ROOT
