@<TRIPOS>MOLECULE
888
   50    53     1     0     0
SMALL
bcc


@<TRIPOS>ATOM
      1 C1           0.0000     0.0000     0.0000 ca         1 888       0.072600
      2 C2           1.3890     0.0000     0.0000 ca         1 888      -0.160000
      3 C3           2.0790     0.0000     1.1960 ca         1 888      -0.025000
      4 C4           1.3930    -0.0010     2.3970 ca         1 888      -0.150000
      5 C5           0.0080     0.0010     2.4040 ca         1 888       0.055000
      6 C6          -0.6810     0.0030     1.2120 ca         1 888      -0.187500
      7 S11         -2.4460     0.0130     1.1900 sy         1 888       1.099700
      8 N12         -2.8800     0.4060    -0.3610 ne         1 888      -0.590300
      9 C13         -2.0150     0.3600    -1.3250 cf         1 888       0.680500
     10 N14         -0.7060    -0.0090    -1.1990 nu         1 888      -0.272600
     11 C15         -2.4840     0.7360    -2.6710 cd         1 888      -0.373800
     12 C16         -3.4350    -0.0460    -3.3240 cc         1 888       0.294900
     13 C17         -3.8710     0.3690    -4.6620 ca         1 888      -0.175800
     14 C18         -3.3180     1.5310    -5.2310 ca         1 888      -0.033400
     15 N19         -2.3800     2.2620    -4.5330 n          1 888       0.091000
     16 C20         -1.9760     1.8960    -3.3040 c          1 888       0.634700
     17 C21         -4.8210    -0.3720    -5.3720 ca         1 888      -0.022000
     18 C22         -5.2080     0.0380    -6.6160 ca         1 888      -0.139000
     19 C23         -4.6660     1.1830    -7.1820 ca         1 888      -0.030000
     20 C24         -3.7290     1.9290    -6.4990 ca         1 888      -0.173000
     21 O29         -3.9400    -1.1550    -2.7430 oh         1 888      -0.467100
     22 O30         -1.1490     2.5760    -2.7240 o          1 888      -0.705500
     23 C31         -1.8150     3.4690    -5.1410 c3         1 888      -0.003000
     24 C32         -2.6720     4.6790    -4.7640 c3         1 888      -0.047400
     25 C35         -2.0830     5.9400    -5.4000 c3         1 888      -0.048700
     26 C38         -2.1780     5.8350    -6.9230 c3         1 888       0.002900
     27 O46         -2.8550     1.0960     2.0130 o          1 888      -0.577800
     28 O47         -2.8610    -1.3310     1.3980 o          1 888      -0.577800
     29 C7          -2.8650     7.1650    -4.9230 c3         1 888       0.002900
     30 H2           1.9310     0.0010    -0.9380 ha         1 888       0.111000
     31 H3           3.1620    -0.0010     1.1940 ha         1 888       0.102000
     32 H4           1.9390    -0.0010     3.3320 ha         1 888       0.110000
     33 H5          -0.5310     0.0000     3.3440 ha         1 888       0.115000
     34 H23         -4.9830     1.4950    -8.1700 ha         1 888       0.105000
     35 H311        -0.8040     3.6170    -4.7800 h1         1 888       0.049700
     36 H312        -1.8010     3.3580    -6.2190 h1         1 888       0.049700
     37 H321        -2.6860     4.7900    -3.6870 hc         1 888       0.032200
     38 H322        -3.6830     4.5310    -5.1250 hc         1 888       0.032200
     39 H35         -1.0440     6.0390    -5.1090 hc         1 888       0.030700
     40 H381        -3.1820     5.5400    -7.2030 hc         1 888       0.004700
     41 H382        -1.9470     6.7960    -7.3660 hc         1 888       0.004700
     42 H383        -1.4710     5.0950    -7.2790 hc         1 888       0.004700
     43 H71         -2.4290     8.0610    -5.3480 hc         1 888       0.004700
     44 H72         -2.8240     7.2220    -3.8420 hc         1 888       0.004700
     45 H73         -3.8980     7.0810    -5.2400 hc         1 888       0.004700
     46 H21         -5.2490    -1.2670    -4.9360 ha         1 888       0.115000
     47 H22         -5.9440    -0.5360    -7.1670 ha         1 888       0.112000
     48 H24         -3.3120     2.8210    -6.9500 ha         1 888       0.130000
     49 H211        -0.1590    -0.0110    -2.0370 hn         1 888       0.290800
     50 H212        -3.4970    -1.9160    -3.0790 ho         1 888       0.414000
@<TRIPOS>BOND
     1     1     2 ar  
     2     1     6 ar  
     3     1    10 1   
     4     2     3 ar  
     5     2    30 1   
     6     3     4 ar  
     7     3    31 1   
     8     4     5 ar  
     9     4    32 1   
    10     5     6 ar  
    11     5    33 1   
    12     6     7 1   
    13     7     8 1   
    14     7    27 2   
    15     7    28 2   
    16     8     9 2   
    17     9    10 1   
    18     9    11 1   
    19    10    49 1   
    20    11    12 2   
    21    11    16 1   
    22    12    13 1   
    23    12    21 1   
    24    13    14 ar  
    25    13    17 ar  
    26    14    15 1   
    27    14    20 ar  
    28    15    16 1   
    29    15    23 1   
    30    16    22 2   
    31    17    18 ar  
    32    17    46 1   
    33    18    19 ar  
    34    18    47 1   
    35    19    20 ar  
    36    19    34 1   
    37    20    48 1   
    38    21    50 1   
    39    23    24 1   
    40    23    35 1   
    41    23    36 1   
    42    24    25 1   
    43    24    37 1   
    44    24    38 1   
    45    25    26 1   
    46    25    29 1   
    47    25    39 1   
    48    26    40 1   
    49    26    41 1   
    50    26    42 1   
    51    29    43 1   
    52    29    44 1   
    53    29    45 1   
@<TRIPOS>SUBSTRUCTURE
     1 888         1 TEMP              0 ****  ****    0 ROOT
