@<TRIPOS>MOLECULE
889
   57    59     1     0     0
SMALL
bcc


@<TRIPOS>ATOM
      1 O26          0.0000     0.0000     0.0000 o          1 889      -0.640100
      2 C25          1.2130     0.0000     0.0000 c          1 889       0.621100
      3 C14          1.9670     0.0000     1.3050 c3         1 889      -0.124700
      4 C20          2.2980     1.4400     1.7050 c3         1 889      -0.014900
      5 C19          3.0090     1.4370     3.0600 c3         1 889       0.155800
      6 N17          2.1410     0.8170     4.0680 n3         1 889      -0.540600
      7 C18          2.7340     0.9220     5.4080 c3         1 889       0.187100
      8 C16          1.8490    -0.5810     3.7300 c3         1 889       0.155800
      9 C15          1.1020    -0.6390     2.3940 c3         1 889      -0.014900
     10 N24          1.8860    -0.0060    -1.1680 n          1 889      -0.161800
     11 C1           3.3390    -0.1160    -1.3450 c3         1 889       0.168300
     12 C21          1.3120     0.0920    -2.5150 c3         1 889       0.131700
     13 C22          0.5550     1.4130    -2.6630 c3         1 889      -0.020100
     14 C23          0.3620    -1.0820    -2.7610 c3         1 889      -0.020100
     15 C3           2.4550     0.0430    -3.4990 cc         1 889      -0.267600
     16 N4           2.7400     0.0730    -4.8200 na         1 889       0.511400
     17 N5           4.1280    -0.0280    -4.9660 nc         1 889      -0.634800
     18 C6           4.6600    -0.1160    -3.7710 cd         1 889       0.391200
     19 C2           3.6180    -0.0760    -2.8270 cd         1 889      -0.397600
     20 N7           6.0280    -0.2320    -3.4850 ns         1 889      -0.096400
     21 C8           6.9260    -0.2620    -4.4890 c          1 889       0.540100
     22 O13          6.5510    -0.1870    -5.6410 o          1 889      -0.579100
     23 C9           8.3960    -0.3860    -4.1810 c3         1 889      -0.095400
     24 C10          9.1910    -0.3970    -5.4890 c3         1 889      -0.036700
     25 C12         10.6880    -0.3980    -5.1740 c3         1 889      -0.000100
     26 C11          8.8380    -1.6500    -6.2920 c3         1 889      -0.000100
     27 H14          2.8860    -0.5640     1.1970 hc         1 889       0.031700
     28 H201         2.9470     1.8810     0.9580 hc         1 889       0.031200
     29 H202         1.3820     2.0120     1.7800 hc         1 889       0.031200
     30 H151         0.9030    -1.6720     2.1370 hc         1 889       0.031200
     31 H152         0.1690    -0.0950     2.4790 hc         1 889       0.031200
     32 H191         3.9300     0.8730     2.9810 h1         1 889       0.007700
     33 H192         3.2280     2.4570     3.3520 h1         1 889       0.007700
     34 H181         2.9060     1.9640     5.6460 h1         1 889       0.000033
     35 H182         3.6760     0.3870     5.4290 h1         1 889       0.000033
     36 H183         2.0580     0.4910     6.1370 h1         1 889       0.000033
     37 H161         2.7780    -1.1330     3.6470 h1         1 889       0.007700
     38 H162         1.2320    -1.0180     4.5060 h1         1 889       0.007700
     39 H11C         3.6600    -1.0760    -0.9600 h1         1 889       0.016200
     40 H12C         3.8080     0.7440    -0.8830 h1         1 889       0.016200
     41 H221         1.1940     2.2320    -2.3570 hc         1 889       0.019533
     42 H222         0.2650     1.5480    -3.6980 hc         1 889       0.019533
     43 H223        -0.3310     1.3930    -2.0390 hc         1 889       0.019533
     44 H231         0.8150    -1.9960    -2.3950 hc         1 889       0.019533
     45 H232        -0.5700    -0.9080    -2.2380 hc         1 889       0.019533
     46 H233         0.1690    -1.1750    -3.8230 hc         1 889       0.019533
     47 H4           2.0740     0.1540    -5.5630 hn         1 889       0.145700
     48 H7           6.3380    -0.2730    -2.5340 hn         1 889       0.167500
     49 H91C         8.5750    -1.3090    -3.6420 hc         1 889       0.027700
     50 H92C         8.7100     0.4540    -3.5740 hc         1 889       0.027700
     51 H10          8.9450     0.4850    -6.0680 hc         1 889       0.042700
     52 H121        10.9310     0.4680    -4.5700 hc         1 889       0.005867
     53 H122        10.9430    -1.3000    -4.6320 hc         1 889       0.005867
     54 H123        11.2520    -0.3620    -6.0990 hc         1 889       0.005867
     55 H111         8.0720    -1.4080    -7.0190 hc         1 889       0.005867
     56 H112         8.4690    -2.4170    -5.6210 hc         1 889       0.005867
     57 H113         9.7210    -2.0120    -6.8040 hc         1 889       0.005867
@<TRIPOS>BOND
     1     1     2 2   
     2     2     3 1   
     3     2    10 1   
     4     3     4 1   
     5     3     9 1   
     6     3    27 1   
     7     4     5 1   
     8     4    28 1   
     9     4    29 1   
    10     5     6 1   
    11     5    32 1   
    12     5    33 1   
    13     6     7 1   
    14     6     8 1   
    15     7    34 1   
    16     7    35 1   
    17     7    36 1   
    18     8     9 1   
    19     8    37 1   
    20     8    38 1   
    21     9    30 1   
    22     9    31 1   
    23    10    11 1   
    24    10    12 1   
    25    11    19 1   
    26    11    39 1   
    27    11    40 1   
    28    12    13 1   
    29    12    14 1   
    30    12    15 1   
    31    13    41 1   
    32    13    42 1   
    33    13    43 1   
    34    14    44 1   
    35    14    45 1   
    36    14    46 1   
    37    15    16 1   
    38    15    19 2   
    39    16    17 1   
    40    16    47 1   
    41    17    18 2   
    42    18    19 1   
    43    18    20 1   
    44    20    21 1   
    45    20    48 1   
    46    21    22 2   
    47    21    23 1   
    48    23    24 1   
    49    23    49 1   
    50    23    50 1   
    51    24    25 1   
    52    24    26 1   
    53    24    51 1   
    54    25    52 1   
    55    25    53 1   
    56    25    54 1   
    57    26    55 1   
    58    26    56 1   
    59    26    57 1   
@<TRIPOS>SUBSTRUCTURE
     1 889         1 TEMP              0 ****  ****    0 ROOT
