@<TRIPOS>MOLECULE
molecule
   55    59     1     0     0
SMALL
bcc


@<TRIPOS>ATOM
      1 O2           0.0000     0.0000     0.0000 o          1 88A      -0.619800
      2 S            1.4210     0.0000     0.0000 sy         1 88A       1.192300
      3 O1           2.1540     0.0000     1.2160 o          1 88A      -0.619800
      4 C1           2.0570    -1.2730    -1.1260 c3         1 88A      -0.225300
      5 C21          1.8550     1.5250    -0.7700 ca         1 88A      -0.294500
      6 C20          0.9790     2.1200    -1.6610 ca         1 88A      -0.032500
      7 C19          1.3130     3.3140    -2.2670 ca         1 88A      -0.126500
      8 C22          3.0660     2.1230    -0.4760 ca         1 88A      -0.032500
      9 C23          3.4110     3.3180    -1.0750 ca         1 88A      -0.126500
     10 C18          2.5360     3.9200    -1.9790 ca         1 88A       0.026000
     11 C2           2.9020     5.2020    -2.6260 cc         1 88A      -0.056000
     12 C6           3.9980     5.2710    -3.5190 cc         1 88A       0.052700
     13 N3           4.8620     4.3630    -3.9560 nd         1 88A      -0.498300
     14 C7           5.7220     4.9320    -4.7980 cd         1 88A       0.807200
     15 N2           5.4290     6.2110    -4.9230 nc         1 88A      -0.656100
     16 N1           4.3180     6.4610    -4.1060 na         1 88A       0.180000
     17 C5           3.5960     7.5810    -3.8420 cc         1 88A      -0.011300
     18 C4           2.5420     7.5490    -2.9940 cd         1 88A      -0.199000
     19 C3           2.1720     6.3520    -2.3720 cd         1 88A      -0.066000
     20 N4           6.7660     4.2780    -5.4480 nu         1 88A      -0.706600
     21 C8           7.5310     4.9570    -6.4040 ca         1 88A       0.143600
     22 C13          8.8340     4.5520    -6.6640 ca         1 88A      -0.140000
     23 C12          9.5900     5.2220    -7.6070 ca         1 88A      -0.138500
     24 C11          9.0460     6.3000    -8.2930 ca         1 88A       0.076600
     25 C10          7.7430     6.7040    -8.0330 ca         1 88A      -0.138500
     26 C9           6.9870     6.0310    -7.0950 ca         1 88A      -0.140000
     27 N5           9.8110     6.9790    -9.2490 nh         1 88A      -0.594000
     28 C17          9.0460     8.0800    -9.8520 c3         1 88A       0.124800
     29 C16          9.9380     8.8300   -10.8440 c3         1 88A       0.136900
     30 O3          10.4290     7.9130   -11.8240 os         1 88A      -0.423600
     31 C15         11.1800     6.8280   -11.2720 c3         1 88A       0.136900
     32 C14         10.3010     6.0570   -10.2850 c3         1 88A       0.124800
     33 H11C         1.8350    -2.2540    -0.7250 h1         1 88A       0.098367
     34 H12C         1.5870    -1.1650    -2.0960 h1         1 88A       0.098367
     35 H13C         3.1290    -1.1600    -1.2310 h1         1 88A       0.098367
     36 H20          0.0300     1.6480    -1.8830 ha         1 88A       0.152500
     37 H22          3.7450     1.6540     0.2260 ha         1 88A       0.152500
     38 H19          0.6280     3.7780    -2.9660 ha         1 88A       0.143500
     39 H23          4.3610     3.7850    -0.8460 ha         1 88A       0.143500
     40 H3           1.3280     6.3260    -1.6930 ha         1 88A       0.155000
     41 H4           6.9590     3.3170    -5.2430 hn         1 88A       0.469800
     42 H5           3.8700     8.5160    -4.3160 h4         1 88A       0.173000
     43 HB           1.9770     8.4530    -2.8020 ha         1 88A       0.159000
     44 H13          9.2580     3.7110    -6.1290 ha         1 88A       0.149000
     45 H9           5.9700     6.3460    -6.8910 ha         1 88A       0.149000
     46 H12         10.6060     4.9060    -7.8110 ha         1 88A       0.139000
     47 H10          7.3180     7.5440    -8.5700 ha         1 88A       0.139000
     48 H171         8.1860     7.6780   -10.3730 h1         1 88A       0.050700
     49 H172         8.7200     8.7600    -9.0740 h1         1 88A       0.050700
     50 H141         9.4580     5.6270   -10.8120 h1         1 88A       0.050700
     51 H142        10.8830     5.2700    -9.8210 h1         1 88A       0.050700
     52 H161         9.3600     9.6050   -11.3330 h1         1 88A       0.054950
     53 H162        10.7720     9.2730   -10.3140 h1         1 88A       0.054950
     54 H151        12.0490     7.2170   -10.7540 h1         1 88A       0.054950
     55 H152        11.4950     6.1650   -12.0690 h1         1 88A       0.054950
@<TRIPOS>BOND
     1     1     2 2   
     2     2     3 2   
     3     2     4 1   
     4     2     5 1   
     5     5     6 ar  
     6     5     8 ar  
     7     6     7 ar  
     8     7    10 ar  
     9     8     9 ar  
    10     9    10 ar  
    11    10    11 1   
    12    11    12 1   
    13    11    19 2   
    14    12    13 2   
    15    12    16 1   
    16    13    14 1   
    17    14    15 2   
    18    14    20 1   
    19    15    16 1   
    20    16    17 1   
    21    17    18 2   
    22    18    19 1   
    23    20    21 1   
    24    21    22 ar  
    25    21    26 ar  
    26    22    23 ar  
    27    23    24 ar  
    28    24    25 ar  
    29    24    27 1   
    30    25    26 ar  
    31    27    28 1   
    32    27    32 1   
    33    28    29 1   
    34    29    30 1   
    35    30    31 1   
    36    31    32 1   
    37     4    33 1   
    38     4    34 1   
    39     4    35 1   
    40     6    36 1   
    41     8    37 1   
    42     7    38 1   
    43     9    39 1   
    44    19    40 1   
    45    20    41 1   
    46    17    42 1   
    47    18    43 1   
    48    22    44 1   
    49    26    45 1   
    50    23    46 1   
    51    25    47 1   
    52    28    48 1   
    53    28    49 1   
    54    32    50 1   
    55    32    51 1   
    56    29    52 1   
    57    29    53 1   
    58    31    54 1   
    59    31    55 1   
@<TRIPOS>SUBSTRUCTURE
     1 88A         1 TEMP              0 ****  ****    0 ROOT
