@<TRIPOS>MOLECULE
88D
   46    48     1     0     0
SMALL
bcc


@<TRIPOS>ATOM
      1 CAA          0.0000     0.0000     0.0000 c3         1 88D       0.063200
      2 CAW          1.5070     0.0000     0.0000 ca         1 88D      -0.122300
      3 CAM          2.1980     0.0000     1.1970 ca         1 88D      -0.082000
      4 CAG          3.5810     0.0010     1.1970 ca         1 88D      -0.111000
      5 CAH          4.2760     0.0010     0.0020 ca         1 88D      -0.084000
      6 CAN          3.5910     0.0010    -1.1970 ca         1 88D      -0.113000
      7 CAX          2.2020    -0.0050    -1.2020 ca         1 88D      -0.095400
      8 NAQ          1.5050    -0.0110    -2.4150 ns         1 88D      -0.015100
      9 C            2.0900    -0.5000    -3.5260 c          1 88D       0.550100
     10 O            3.1810    -1.0270    -3.4560 o          1 88D      -0.633100
     11 CA           1.3900    -0.3940    -4.8560 c3         1 88D      -0.056300
     12 CB           1.1450     1.0800    -5.1860 c3         1 88D       0.021900
     13 CG           0.3370     1.1830    -6.4550 ca         1 88D      -0.086300
     14 CD1         -1.0440     1.2060    -6.3940 ca         1 88D      -0.090000
     15 CE1         -1.7840     1.3000    -7.5580 ca         1 88D      -0.089500
     16 CZ          -1.1440     1.3720    -8.7810 ca         1 88D      -0.095000
     17 CE2          0.2360     1.3490    -8.8400 ca         1 88D      -0.089500
     18 CD2          0.9780     1.2600    -7.6770 ca         1 88D      -0.090000
     19 N            2.2260    -0.9950    -5.8980 ns         1 88D      -0.162900
     20 CAT          1.6590    -1.4750    -7.0220 c          1 88D       0.628700
     21 OAB          0.4530    -1.4080    -7.1730 o          1 88D      -0.642100
     22 CAY          2.4940    -2.0760    -8.0620 cc         1 88D       0.067300
     23 SE           4.4600    -2.3210    -8.1010 ss         1 88D      -0.529800
     24 CAJ          4.3980    -3.1790    -9.8850 cc         1 88D       0.168900
     25 CAI          3.0870    -3.1610   -10.1600 cd         1 88D      -0.149000
     26 CAO          2.1230    -2.6170    -9.2530 cd         1 88D      -0.048000
     27 H1          -0.3610     0.9120    -0.4590 hc         1 88D       0.007700
     28 H2          -0.3610    -0.0580     1.0200 hc         1 88D       0.007700
     29 H3          -0.3610    -0.8540    -0.5600 hc         1 88D       0.007700
     30 H4           1.6570    -0.0000     2.1350 ha         1 88D       0.106000
     31 H5           4.1210     0.0010     2.1360 ha         1 88D       0.103000
     32 H6           5.3590     0.0040     0.0070 ha         1 88D       0.105000
     33 H7           4.1370    -0.0000    -2.1330 ha         1 88D       0.152000
     34 H8           0.5810     0.3700    -2.4630 hn         1 88D       0.174500
     35 H9           0.4420    -0.9160    -4.8070 h1         1 88D       0.071700
     36 H10          0.6020     1.5470    -4.3730 hc         1 88D       0.023700
     37 H11          2.0950     1.5830    -5.3210 hc         1 88D       0.023700
     38 H12         -1.5450     1.1500    -5.4360 ha         1 88D       0.100000
     39 H13         -2.8660     1.3180    -7.5110 ha         1 88D       0.099000
     40 H14         -1.7240     1.4440    -9.6930 ha         1 88D       0.099000
     41 H15          0.7380     1.4080    -9.7990 ha         1 88D       0.099000
     42 H16          2.0600     1.2420    -7.7240 ha         1 88D       0.100000
     43 H17          3.2130    -1.0790    -5.7600 hn         1 88D       0.206500
     44 H18          5.2140    -3.5620   -10.4850 h4         1 88D       0.152000
     45 H19          2.7440    -3.5790   -11.0990 ha         1 88D       0.113000
     46 H20          1.0750    -2.6280    -9.5260 ha         1 88D       0.128000
@<TRIPOS>BOND
     1     1     2 1   
     2     1    27 1   
     3     1    28 1   
     4     1    29 1   
     5     2     3 ar  
     6     2     7 ar  
     7     3     4 ar  
     8     3    30 1   
     9     4     5 ar  
    10     4    31 1   
    11     5     6 ar  
    12     5    32 1   
    13     6     7 ar  
    14     6    33 1   
    15     7     8 1   
    16     8     9 1   
    17     8    34 1   
    18     9    10 2   
    19     9    11 1   
    20    11    12 1   
    21    11    19 1   
    22    11    35 1   
    23    12    13 1   
    24    12    36 1   
    25    12    37 1   
    26    13    14 ar  
    27    13    18 ar  
    28    14    15 ar  
    29    14    38 1   
    30    15    16 ar  
    31    15    39 1   
    32    16    17 ar  
    33    16    40 1   
    34    17    18 ar  
    35    17    41 1   
    36    18    42 1   
    37    19    20 1   
    38    19    43 1   
    39    20    21 2   
    40    20    22 1   
    41    22    23 1   
    42    22    26 2   
    43    23    24 1   
    44    24    25 2   
    45    24    44 1   
    46    25    26 1   
    47    25    45 1   
    48    26    46 1   
@<TRIPOS>SUBSTRUCTURE
     1 88D         1 TEMP              0 ****  ****    0 ROOT
