@<TRIPOS>MOLECULE
88G
   49    51     1     0     0
SMALL
bcc


@<TRIPOS>ATOM
      1 CAA          0.0000     0.0000     0.0000 c3         1 88G       0.063200
      2 CAW          1.5070     0.0000     0.0000 ca         1 88G      -0.122300
      3 CAL          2.1980     0.0000     1.1950 ca         1 88G      -0.082000
      4 CAJ          3.5810    -0.0000     1.1960 ca         1 88G      -0.112000
      5 CAK          4.2760     0.0010     0.0010 ca         1 88G      -0.084000
      6 CAQ          3.5910     0.0010    -1.1990 ca         1 88G      -0.114000
      7 CAZ          2.2020    -0.0050    -1.2030 ca         1 88G      -0.094400
      8 NAS          1.5050    -0.0100    -2.4150 ns         1 88G      -0.016100
      9 C            2.0890    -0.5000    -3.5270 c          1 88G       0.553100
     10 O            3.1790    -1.0270    -3.4570 o          1 88G      -0.639100
     11 CA           1.3870    -0.3930    -4.8560 c3         1 88G      -0.053300
     12 CB           1.1420     1.0810    -5.1870 c3         1 88G       0.022900
     13 CG           0.3340     1.1830    -6.4540 ca         1 88G      -0.084300
     14 CD1         -1.0470     1.2070    -6.3940 ca         1 88G      -0.089000
     15 CE1         -1.7880     1.3020    -7.5570 ca         1 88G      -0.089500
     16 CZ          -1.1480     1.3730    -8.7800 ca         1 88G      -0.095000
     17 CE2          0.2320     1.3510    -8.8400 ca         1 88G      -0.089500
     18 CD2          0.9740     1.2610    -7.6780 ca         1 88G      -0.089000
     19 N            2.2230    -0.9950    -5.8980 ns         1 88G      -0.183900
     20 CAU          1.6560    -1.4750    -7.0240 c          1 88G       0.596700
     21 OAB          0.4520    -1.4080    -7.1730 o          1 88G      -0.645100
     22 CAY          2.4990    -2.0820    -8.0760 ca         1 88G      -0.155600
     23 CAO          1.9150    -2.5790    -9.2410 ca         1 88G      -0.059500
     24 CAH          2.7070    -3.1450   -10.2200 ca         1 88G      -0.113000
     25 CAE          4.0780    -3.2190   -10.0460 ca         1 88G      -0.079000
     26 CAI          4.6630    -2.7270    -8.8920 ca         1 88G      -0.113000
     27 CAP          3.8830    -2.1550    -7.9090 ca         1 88G      -0.059500
     28 H1          -0.3610    -0.0580     1.0200 hc         1 88G       0.008033
     29 H2          -0.3610    -0.8540    -0.5600 hc         1 88G       0.008033
     30 H3          -0.3610     0.9120    -0.4600 hc         1 88G       0.008033
     31 H4           1.6570    -0.0010     2.1330 ha         1 88G       0.106000
     32 H5           4.1210    -0.0000     2.1350 ha         1 88G       0.103000
     33 H6           5.3590     0.0030     0.0050 ha         1 88G       0.104000
     34 H7           4.1360    -0.0010    -2.1350 ha         1 88G       0.151000
     35 H8           0.5760     0.3610    -2.4600 hn         1 88G       0.175500
     36 H9           0.4390    -0.9150    -4.8070 h1         1 88G       0.071700
     37 H10          2.0920     1.5830    -5.3230 hc         1 88G       0.022200
     38 H11          0.6000     1.5480    -4.3740 hc         1 88G       0.022200
     39 H12         -1.5480     1.1510    -5.4350 ha         1 88G       0.098500
     40 H13         -2.8700     1.3200    -7.5100 ha         1 88G       0.099000
     41 H14         -1.7290     1.4450    -9.6910 ha         1 88G       0.099000
     42 H15          0.7330     1.4090    -9.7990 ha         1 88G       0.099000
     43 H16          2.0560     1.2440    -7.7260 ha         1 88G       0.098500
     44 H17          3.2090    -1.0860    -5.7580 hn         1 88G       0.202500
     45 H18          0.8420    -2.5220    -9.3780 ha         1 88G       0.117000
     46 H19          2.2550    -3.5310   -11.1250 ha         1 88G       0.105500
     47 H20          4.6950    -3.6660   -10.8160 ha         1 88G       0.102000
     48 H21          5.7370    -2.7870    -8.7630 ha         1 88G       0.105500
     49 H22          4.3430    -1.7700    -7.0070 ha         1 88G       0.117000
@<TRIPOS>BOND
     1     1     2 1   
     2     1    28 1   
     3     1    29 1   
     4     1    30 1   
     5     2     3 ar  
     6     2     7 ar  
     7     3     4 ar  
     8     3    31 1   
     9     4     5 ar  
    10     4    32 1   
    11     5     6 ar  
    12     5    33 1   
    13     6     7 ar  
    14     6    34 1   
    15     7     8 1   
    16     8     9 1   
    17     8    35 1   
    18     9    10 2   
    19     9    11 1   
    20    11    12 1   
    21    11    19 1   
    22    11    36 1   
    23    12    13 1   
    24    12    37 1   
    25    12    38 1   
    26    13    14 ar  
    27    13    18 ar  
    28    14    15 ar  
    29    14    39 1   
    30    15    16 ar  
    31    15    40 1   
    32    16    17 ar  
    33    16    41 1   
    34    17    18 ar  
    35    17    42 1   
    36    18    43 1   
    37    19    20 1   
    38    19    44 1   
    39    20    21 2   
    40    20    22 1   
    41    22    23 ar  
    42    22    27 ar  
    43    23    24 ar  
    44    23    45 1   
    45    24    25 ar  
    46    24    46 1   
    47    25    26 ar  
    48    25    47 1   
    49    26    27 ar  
    50    26    48 1   
    51    27    49 1   
@<TRIPOS>SUBSTRUCTURE
     1 88G         1 TEMP              0 ****  ****    0 ROOT
