@<TRIPOS>MOLECULE
molecule
   58    62     1     0     0
SMALL
bcc


@<TRIPOS>ATOM
      1 C18          0.0000     0.0000     0.0000 ca         1 88J      -0.122000
      2 C17          1.3830     0.0000     0.0000 ca         1 88J      -0.132500
      3 C19         -0.6960    -0.0000     1.1960 ca         1 88J      -0.132500
      4 C16          2.0770     0.0000     1.1930 ca         1 88J      -0.097000
      5 C20         -0.0140    -0.0060     2.3950 ca         1 88J      -0.097000
      6 C8           4.9190    -0.8970     7.6960 ca         1 88J      -0.103000
      7 C7           4.1450     0.1570     7.3130 ca         1 88J      -0.168300
      8 C30          4.5560    -4.5160     8.9770 ca         1 88J      -0.235300
      9 C34          6.1500    -2.9720     9.8400 ca         1 88J      -0.235300
     10 C10          4.4030    -2.1010     5.6910 ca         1 88J      -0.083000
     11 C31          4.2330    -4.8500    10.2800 ca         1 88J       0.413700
     12 C33          5.7750    -3.3560    11.1130 ca         1 88J       0.413700
     13 C24          7.8360    -1.5290     7.0010 cc         1 88J       0.336200
     14 C26          9.5460    -2.7680     7.4470 cc         1 88J       0.404400
     15 C11          3.5880    -1.0390     5.2700 ca         1 88J      -0.157300
     16 C15          1.3800    -0.0010     2.4000 cp         1 88J      -0.031000
     17 C14          2.1200    -0.0010     3.6850 cp         1 88J      -0.125300
     18 C9           5.0490    -2.0230     6.8880 ca         1 88J      -0.106300
     19 C29          5.5330    -3.5610     8.7480 ca         1 88J      -0.050300
     20 C6           3.4600     0.1120     6.0880 ca         1 88J       0.441600
     21 C12          2.9060    -1.0860     4.0380 ca         1 88J       0.076400
     22 C23          7.3610    -2.7500     7.3140 cd         1 88J      -0.291900
     23 C4           2.0270     1.1030     4.5600 ca         1 88J       0.636200
     24 C1           0.2380     2.4710     5.2400 c3         1 88J       0.160100
     25 C3           2.0660     3.3700     3.9300 c3         1 88J       0.160100
     26 C21          5.9140    -3.1690     7.3430 c3         1 88J       0.338700
     27 N32          4.8420    -4.2690    11.2950 nb         1 88J      -0.687000
     28 N25          9.1740    -1.5700     7.0870 nd         1 88J      -0.698000
     29 N5           2.6850     1.1320     5.6990 nb         1 88J      -0.722000
     30 N27          8.4440    -3.5350     7.5990 na         1 88J      -0.172900
     31 N2           1.2400     2.1850     4.2040 nh         1 88J      -0.717300
     32 O22          5.7240    -4.2850     6.4700 oh         1 88J      -0.600800
     33 Cl13         3.0480    -2.4640     2.9920 cl         1 88J      -0.077400
     34 H46         -0.5400     0.0020    -0.9390 ha         1 88J       0.128000
     35 H45          1.9230     0.0000    -0.9390 ha         1 88J       0.130000
     36 H47         -1.7800    -0.0030     1.1900 ha         1 88J       0.130000
     37 H44          3.1610     0.0020     1.1910 ha         1 88J       0.133500
     38 H48         -0.5610    -0.0070     3.3300 ha         1 88J       0.133500
     39 H42          5.4420    -0.8570     8.6440 ha         1 88J       0.145000
     40 H41          4.0550     1.0250     7.9540 ha         1 88J       0.154000
     41 H55          4.0530    -4.9970     8.1470 ha         1 88J       0.153000
     42 H58          6.9180    -2.2210     9.6980 ha         1 88J       0.153000
     43 H43          4.5110    -2.9830     5.0710 ha         1 88J       0.155000
     44 H56          3.4710    -5.5960    10.4680 h4         1 88J       0.025600
     45 H57          6.2530    -2.9010    11.9720 h4         1 88J       0.025600
     46 H50          7.2420    -0.6670     6.7230 h4         1 88J       0.051100
     47 H51         10.5680    -3.0940     7.5980 h5         1 88J       0.068100
     48 H54          7.6600    -5.4660     7.4200 h1         1 88J       0.060700
     49 H53          8.1820    -5.0190     9.0500 h1         1 88J       0.060700
     50 H52          9.3840    -5.3930     7.8070 h1         1 88J       0.060700
     51 H36          0.7060     3.0040     6.0580 h1         1 88J       0.042033
     52 H37         -0.5530     3.0790     4.8180 h1         1 88J       0.042033
     53 H35         -0.1780     1.5410     5.6060 h1         1 88J       0.042033
     54 H38          2.4230     3.7850     4.8650 h1         1 88J       0.042033
     55 H39          2.9110     3.0860     3.3150 h1         1 88J       0.042033
     56 H40          1.4720     4.1110     3.4090 h1         1 88J       0.042033
     57 H49          6.2300    -4.1590     5.6850 ho         1 88J       0.419000
     58 C28          8.4160    -4.9450     7.9950 c3         1 88J       0.023600
@<TRIPOS>BOND
     1     2     1 ar
     2     2     4 ar
     3     1     3 ar
     4     4    16 ar
     5     3     5 ar
     6    33    21 1
     7    16     5 ar
     8    16    17 1
     9    21    17 ar
    10    21    15 ar
    11    17    23 ar
    12    32    26 1
    13    24    31 1
    14    10    15 ar
    15    10    18 ar
    16    15    20 ar
    17    58    30 1
    18    23    31 1
    19    23    29 ar
    20    31    25 1
    21    30    14 1
    22    30    22 1
    23    26    22 1
    24    26    18 1
    25    26    19 1
    26    14    28 2
    27    22    13 2
    28    18     6 ar
    29    28    13 1
    30    20    29 ar
    31    20     7 ar
    32     8    19 ar
    33     8    11 ar
    34    19     9 ar
    35     6     7 ar
    36    11    27 ar
    37     9    12 ar
    38    27    12 ar
    39     1    34 1
    40     2    35 1
    41     3    36 1
    42     4    37 1
    43     5    38 1
    44     6    39 1
    45     7    40 1
    46     8    41 1
    47     9    42 1
    48    10    43 1
    49    11    44 1
    50    12    45 1
    51    13    46 1
    52    14    47 1
    53    58    48 1
    54    58    49 1
    55    58    50 1
    56    24    51 1
    57    24    52 1
    58    24    53 1
    59    25    54 1
    60    25    55 1
    61    25    56 1
    62    32    57 1
@<TRIPOS>SUBSTRUCTURE
     1 88J         1 TEMP              0 ****  ****    0 ROOT
