@<TRIPOS>MOLECULE
88J
   58    62     1     0     0
SMALL
bcc


@<TRIPOS>ATOM
      1 C18          0.0000     0.0000     0.0000 ca         1 88J      -0.096000
      2 C17          1.3830     0.0000     0.0000 ca         1 88J      -0.102500
      3 C19         -0.6960    -0.0000     1.1960 ca         1 88J      -0.102500
      4 C16          2.0770     0.0000     1.1930 ca         1 88J      -0.077500
      5 C20         -0.0140    -0.0060     2.3950 ca         1 88J      -0.077500
      6 C8           4.9190    -0.8970     7.6960 ca         1 88J      -0.085000
      7 C7           4.1450     0.1570     7.3130 ca         1 88J      -0.140300
      8 C30          4.5560    -4.5160     8.9770 ca         1 88J      -0.209300
      9 C34          6.1500    -2.9720     9.8400 ca         1 88J      -0.209300
     10 C10          4.4030    -2.1010     5.6910 ca         1 88J      -0.069000
     11 C31          4.2330    -4.8500    10.2800 ca         1 88J       0.400700
     12 C33          5.7750    -3.3560    11.1130 ca         1 88J       0.400700
     13 C24          7.8360    -1.5290     7.0010 cc         1 88J       0.339200
     14 C26          9.5460    -2.7680     7.4470 cd         1 88J       0.225400
     15 C11          3.5880    -1.0390     5.2700 ca         1 88J      -0.146300
     16 C15          1.3800    -0.0010     2.4000 cp         1 88J      -0.030000
     17 C14          2.1200    -0.0010     3.6850 cp         1 88J      -0.114300
     18 C9           5.0490    -2.0230     6.8880 ca         1 88J      -0.112300
     19 C29          5.5330    -3.5610     8.7480 ca         1 88J      -0.075300
     20 C6           3.4600     0.1120     6.0880 ca         1 88J       0.391600
     21 C12          2.9060    -1.0860     4.0380 ca         1 88J       0.001400
     22 C23          7.3610    -2.7500     7.3140 cd         1 88J      -0.483900
     23 C4           2.0270     1.1030     4.5600 ca         1 88J       0.512200
     24 C1           0.2380     2.4710     5.2400 c3         1 88J       0.184100
     25 C3           2.0660     3.3700     3.9300 c3         1 88J       0.184100
     26 C21          5.9140    -3.1690     7.3430 c3         1 88J       0.400700
     27 N32          4.8420    -4.2690    11.2950 nb         1 88J      -0.578000
     28 N25          9.1740    -1.5700     7.0870 nc         1 88J      -0.620000
     29 N5           2.6850     1.1320     5.6990 nb         1 88J      -0.598000
     30 N27          8.4440    -3.5350     7.5990 na         1 88J       0.316100
     31 N2           1.2400     2.1850     4.2040 nh         1 88J      -0.519300
     32 O22          5.7240    -4.2850     6.4700 oh         1 88J      -0.592800
     33 Cl13         3.0480    -2.4640     2.9920 cl         1 88J       0.010600
     34 H46         -0.5400     0.0020    -0.9390 ha         1 88J       0.101000
     35 H45          1.9230     0.0000    -0.9390 ha         1 88J       0.103000
     36 H47         -1.7800    -0.0030     1.1900 ha         1 88J       0.103000
     37 H44          3.1610     0.0020     1.1910 ha         1 88J       0.107500
     38 H48         -0.5610    -0.0070     3.3300 ha         1 88J       0.107500
     39 H42          5.4420    -0.8570     8.6440 ha         1 88J       0.120000
     40 H41          4.0550     1.0250     7.9540 ha         1 88J       0.121000
     41 H55          4.0530    -4.9970     8.1470 ha         1 88J       0.130000
     42 H58          6.9180    -2.2210     9.6980 ha         1 88J       0.130000
     43 H43          4.5110    -2.9830     5.0710 ha         1 88J       0.128000
     44 H56          3.4710    -5.5960    10.4680 h4         1 88J      -0.017900
     45 H57          6.2530    -2.9010    11.9720 h4         1 88J      -0.017900
     46 H50          7.2420    -0.6670     6.7230 h4         1 88J       0.016100
     47 H51         10.5680    -3.0940     7.5980 h5         1 88J       0.026100
     48 H54          7.6600    -5.4660     7.4200 h1         1 88J       0.032367
     49 H53          8.1820    -5.0190     9.0500 h1         1 88J       0.032367
     50 H52          9.3840    -5.3930     7.8070 h1         1 88J       0.032367
     51 H36          0.7060     3.0040     6.0580 h1         1 88J       0.007033
     52 H37         -0.5530     3.0790     4.8180 h1         1 88J       0.007033
     53 H35         -0.1780     1.5410     5.6060 h1         1 88J       0.007033
     54 H38          2.4230     3.7850     4.8650 h1         1 88J       0.007033
     55 H39          2.9110     3.0860     3.3150 h1         1 88J       0.007033
     56 H40          1.4720     4.1110     3.4090 h1         1 88J       0.007033
     57 H49          6.2300    -4.1590     5.6850 ho         1 88J       0.407000
     58 C28          8.4160    -4.9450     7.9950 c3         1 88J      -0.031400
@<TRIPOS>BOND
     1     1     2 ar  
     2     1     3 ar  
     3     1    34 1   
     4     2     4 ar  
     5     2    35 1   
     6     3     5 ar  
     7     3    36 1   
     8     4    16 ar  
     9     4    37 1   
    10     5    16 ar  
    11     5    38 1   
    12     6     7 ar  
    13     6    18 ar  
    14     6    39 1   
    15     7    20 ar  
    16     7    40 1   
    17     8    11 ar  
    18     8    19 ar  
    19     8    41 1   
    20     9    12 ar  
    21     9    19 ar  
    22     9    42 1   
    23    10    15 ar  
    24    10    18 ar  
    25    10    43 1   
    26    11    27 ar  
    27    11    44 1   
    28    12    27 ar  
    29    12    45 1   
    30    13    22 2   
    31    13    28 1   
    32    13    46 1   
    33    14    28 2   
    34    14    30 1   
    35    14    47 1   
    36    15    20 ar  
    37    15    21 ar  
    38    16    17 1   
    39    17    21 ar  
    40    17    23 ar  
    41    18    26 1   
    42    19    26 1   
    43    20    29 ar  
    44    21    33 1   
    45    22    26 1   
    46    22    30 1   
    47    23    29 ar  
    48    23    31 1   
    49    24    31 1   
    50    24    51 1   
    51    24    52 1   
    52    24    53 1   
    53    25    31 1   
    54    25    54 1   
    55    25    55 1   
    56    25    56 1   
    57    26    32 1   
    58    30    58 1   
    59    32    57 1   
    60    48    58 1   
    61    49    58 1   
    62    50    58 1   
@<TRIPOS>SUBSTRUCTURE
     1 88J         1 TEMP              0 ****  ****    0 ROOT
