@<TRIPOS>MOLECULE
molecule
   22    22     1     0     0
SMALL
bcc


@<TRIPOS>ATOM
      1 O01          0.0000     0.0000     0.0000 o          1 88L      -0.886167
      2 P02          1.6090     0.0000     0.0000 p5         1 88L       1.126900
      3 O03          2.1460     0.0000     1.5180 o          1 88L      -0.886167
      4 O04          2.1030    -1.2080    -0.6980 o          1 88L      -0.886167
      5 O05          2.1460     1.3160    -0.7580 os         1 88L      -0.443500
      6 C06          1.8360     1.3560    -2.0810 ca         1 88L       0.245100
      7 C07          2.7010     0.8050    -3.0140 ca         1 88L      -0.153500
      8 C08          2.3810     0.8430    -4.3570 ca         1 88L      -0.126000
      9 C09          1.2000     1.4300    -4.7720 ca         1 88L      -0.176300
     10 C10          0.8530     1.4690    -6.2380 c3         1 88L      -0.016100
     11 C11          0.0610     0.2150    -6.6090 c3         1 88L      -0.086100
     12 C12          0.3360     1.9790    -3.8430 ca         1 88L      -0.126000
     13 C13          0.6510     1.9440    -2.4990 ca         1 88L      -0.153500
     14 H071         3.6540     0.4000    -2.6960 ha         1 88L       0.141500
     15 H081         3.0620     0.4230    -5.0880 ha         1 88L       0.089500
     16 H101         1.7640     1.5080    -6.8240 hc         1 88L       0.015700
     17 H102         0.2540     2.3480    -6.4440 hc         1 88L       0.015700
     18 H113        -0.8520     0.1790    -6.0270 hc         1 88L       0.024700
     19 H112         0.6580    -0.6640    -6.3980 hc         1 88L       0.024700
     20 H111        -0.1830     0.2400    -7.6640 hc         1 88L       0.024700
     21 H121        -0.5820     2.4520    -4.1710 ha         1 88L       0.089500
     22 H131         0.0040     2.4310    -1.7780 ha         1 88L       0.141500
@<TRIPOS>BOND
     1    11    10 1
     2    10     9 1
     3     8     9 ar
     4     8     7 ar
     5     9    12 ar
     6     7     6 ar
     7    12    13 ar
     8     6    13 ar
     9     6     5 1
    10     4     2 1
    11     5     2 1
    12     2     3 1
    13     2     1 1
    14     7    14 1
    15     8    15 1
    16    10    16 1
    17    10    17 1
    18    11    18 1
    19    11    19 1
    20    11    20 1
    21    12    21 1
    22    13    22 1
@<TRIPOS>SUBSTRUCTURE
     1 88L         1 TEMP              0 ****  ****    0 ROOT
