@<TRIPOS>MOLECULE
molecule
   56    58     1     0     0
SMALL
bcc


@<TRIPOS>ATOM
      1 C1           0.0000     0.0000     0.0000 ca         1 88M      -0.100000
      2 C2           1.3820     0.0000     0.0000 ca         1 88M      -0.195000
      3 C3           4.5870    -1.0150    -0.6250 ca         1 88M      -0.093000
      4 C4           5.2330    -0.8980    -1.8410 ca         1 88M      -0.173000
      5 C5          -0.0120    -0.0000     2.4060 ca         1 88M      -0.132000
      6 C6           4.8560     1.4710    -1.8210 ca         1 88M      -0.211000
      7 C7           1.3810    -0.0010     2.4090 ca         1 88M      -0.034800
      8 C8          -0.6990    -0.0000     1.2010 ca         1 88M       0.180600
      9 C9           2.0780     0.0000     1.1970 ca         1 88M       0.111100
     10 C10          4.0730     0.1140    -0.0020 ca         1 88M       0.086100
     11 C11          5.3680     0.3440    -2.4390 ca         1 88M       0.141900
     12 C12          4.2090     1.3580    -0.6030 ca         1 88M       0.142900
     13 C13          2.9010     1.1520     5.6620 cc         1 88M      -0.390200
     14 C14          2.7280    -1.1370     4.1360 cc         1 88M       0.043600
     15 C15          2.1220    -0.0010     3.6940 cd         1 88M      -0.139200
     16 C16          2.2040     1.1840     4.4710 cd         1 88M       0.232100
     17 C17          3.5060    -0.0430     6.0700 c          1 88M       0.703700
     18 C18          0.9200     4.6300     4.3090 c3         1 88M      -0.093100
     19 C19         -3.0180    -3.8360     2.9380 c3         1 88M      -0.030100
     20 C21          1.7390     3.4730     4.8930 c3         1 88M       0.131400
     21 C22         -3.8910    -2.9520     2.0540 c3         1 88M      -0.255600
     22 N23          3.4090    -1.1490     5.3100 n          1 88M      -0.326000
     23 N24         -2.0980    -0.0000     1.1950 nu         1 88M      -1.008400
     24 O25          4.1250    -0.0810     7.1210 o          1 88M      -0.667500
     25 O26         -3.9970    -0.3850     0.8740 oh         1 88M      -0.505700
     26 O27         -1.7570    -1.8520     0.5640 oh         1 88M      -0.505700
     27 O28          3.4380    -0.0000     1.1940 os         1 88M      -0.241200
     28 O29          1.6080     2.3250     4.0520 os         1 88M      -0.309900
     29 F30          5.9750     0.4020    -3.6620 f          1 88M      -0.137900
     30 F31          4.2050     2.6530    -0.1730 f          1 88M      -0.122900
     31 S32         -2.9750    -1.4580     1.6040 s6         1 88M       0.766600
     32 H1          -0.5420     0.0000    -0.9380 ha         1 88M       0.128000
     33 H2           1.9230    -0.0000    -0.9380 ha         1 88M       0.135000
     34 H3           4.4830    -1.9860    -0.1580 ha         1 88M       0.158000
     35 H4           5.6350    -1.7790    -2.3270 ha         1 88M       0.154000
     36 H5          -0.5560    -0.0010     3.3420 ha         1 88M       0.137000
     37 H6           4.9620     2.4410    -2.2900 ha         1 88M       0.170000
     38 H13          3.0200     2.0590     6.2430 ha         1 88M       0.166000
     39 H14          2.6630    -2.0390     3.5400 h4         1 88M       0.163000
     40 H7           1.2210     4.8030     3.2830 hc         1 88M       0.048700
     41 H8          -0.1330     4.3790     4.3400 hc         1 88M       0.048700
     42 H9           1.0950     5.5270     4.8920 hc         1 88M       0.048700
     43 H10         -3.5750    -4.1240     3.8220 hc         1 88M       0.027700
     44 H11         -2.1310    -3.2880     3.2320 hc         1 88M       0.027700
     45 H12         -2.7290    -4.7230     2.3880 hc         1 88M       0.027700
     46 H15          5.1260    -2.2710     5.7200 h1         1 88M       0.054367
     47 H16          3.7450    -2.6040     6.7750 h1         1 88M       0.054367
     48 H17          3.7520    -3.2030     5.1100 h1         1 88M       0.054367
     49 H18          2.7820     3.7610     4.9510 h1         1 88M       0.042200
     50 H19          1.3740     3.2370     5.8860 h1         1 88M       0.042200
     51 H20         -4.1610    -3.4950     1.1560 h1         1 88M       0.057700
     52 H21         -4.7900    -2.6770     2.5930 h1         1 88M       0.057700
     53 H22         -4.4750    -0.8220     0.1890 ho         1 88M       0.423000
     54 H23         -2.0630    -1.7690    -0.3240 ho         1 88M       0.423000
     55 H24         -2.5990     0.8210     1.4700 hn         1 88M       0.399800
     56 C20          4.0500    -2.3870     5.7580 c3         1 88M       0.084300
@<TRIPOS>BOND
     1     1     2 ar  
     2     1     8 ar  
     3     2     9 ar  
     4     3     4 ar  
     5     3    10 ar  
     6     4    11 ar  
     7     5     7 ar  
     8     5     8 ar  
     9     6    11 ar  
    10     6    12 ar  
    11     7     9 ar  
    12     7    15 1   
    13     8    23 1   
    14     9    27 1   
    15    10    12 ar  
    16    10    27 1   
    17    11    29 1   
    18    12    30 1   
    19    13    16 2   
    20    13    17 1   
    21    14    15 2   
    22    14    22 1   
    23    15    16 1   
    24    16    28 1   
    25    17    22 1   
    26    17    24 2   
    27    18    20 1   
    28    19    21 1   
    29    56    22 1   
    30    20    28 1   
    31    21    31 1   
    32    23    31 3   
    33    25    31 1   
    34    26    31 1   
    35     1    32 1   
    36     2    33 1   
    37     3    34 1   
    38     4    35 1   
    39     5    36 1   
    40     6    37 1   
    41    13    38 1   
    42    14    39 1   
    43    18    40 1   
    44    18    41 1   
    45    18    42 1   
    46    19    43 1   
    47    19    44 1   
    48    19    45 1   
    49    56    46 1   
    50    56    47 1   
    51    56    48 1   
    52    20    49 1   
    53    20    50 1   
    54    21    51 1   
    55    21    52 1   
    56    23    55 1   
    57    25    53 1   
    58    26    54 1   
@<TRIPOS>SUBSTRUCTURE
     1 88M         1 TEMP              0 ****  ****    0 ROOT
