@<TRIPOS>MOLECULE
88M
   56    58     1     0     0
SMALL
bcc


@<TRIPOS>ATOM
      1 C1           0.0000     0.0000     0.0000 ca         1 88M      -0.094000
      2 C2           1.3820     0.0000     0.0000 ca         1 88M      -0.182000
      3 C3           4.5870    -1.0150    -0.6250 ca         1 88M      -0.076000
      4 C4           5.2330    -0.8980    -1.8410 ca         1 88M      -0.132000
      5 C5          -0.0120    -0.0000     2.4060 ca         1 88M      -0.105000
      6 C6           4.8560     1.4710    -1.8210 ca         1 88M      -0.175000
      7 C7           1.3810    -0.0010     2.4090 ca         1 88M      -0.037800
      8 C8          -0.6990    -0.0000     1.2010 ca         1 88M       0.151600
      9 C9           2.0780     0.0000     1.1970 ca         1 88M       0.107100
     10 C10          4.0730     0.1140    -0.0020 ca         1 88M       0.111100
     11 C11          5.3680     0.3440    -2.4390 ca         1 88M       0.115900
     12 C12          4.2090     1.3580    -0.6030 ca         1 88M       0.115900
     13 C13          2.9010     1.1520     5.6620 cc         1 88M      -0.389200
     14 C14          2.7280    -1.1370     4.1360 cc         1 88M      -0.104400
     15 C15          2.1220    -0.0010     3.6940 cd         1 88M      -0.125200
     16 C16          2.2040     1.1840     4.4710 cd         1 88M       0.242100
     17 C17          3.5060    -0.0430     6.0700 c          1 88M       0.612700
     18 C18          0.9200     4.6300     4.3090 c3         1 88M       0.000900
     19 C19         -3.0180    -3.8360     2.9380 c3         1 88M       0.071900
     20 C21          1.7390     3.4730     4.8930 c3         1 88M       0.198400
     21 C22         -3.8910    -2.9520     2.0540 c3         1 88M      -0.002600
     22 N23          3.4090    -1.1490     5.3100 n          1 88M       0.107000
     23 N24         -2.0980    -0.0000     1.1950 nu         1 88M      -0.844400
     24 O25          4.1250    -0.0810     7.1210 o          1 88M      -0.718500
     25 O26         -3.9970    -0.3850     0.8740 oh         1 88M      -0.394200
     26 O27         -1.7570    -1.8520     0.5640 oh         1 88M      -0.394200
     27 O28          3.4380    -0.0000     1.1940 os         1 88M      -0.217200
     28 O29          1.6080     2.3250     4.0520 os         1 88M      -0.286900
     29 F30          5.9750     0.4020    -3.6620 f          1 88M      -0.129900
     30 F31          4.2050     2.6530    -0.1730 f          1 88M      -0.119900
     31 S32         -2.9750    -1.4580     1.6040 s6         1 88M       0.307600
     32 H1          -0.5420     0.0000    -0.9380 ha         1 88M       0.099000
     33 H2           1.9230    -0.0000    -0.9380 ha         1 88M       0.113000
     34 H3           4.4830    -1.9860    -0.1580 ha         1 88M       0.124000
     35 H4           5.6350    -1.7790    -2.3270 ha         1 88M       0.125000
     36 H5          -0.5560    -0.0010     3.3420 ha         1 88M       0.115000
     37 H6           4.9620     2.4410    -2.2900 ha         1 88M       0.145000
     38 H13          3.0200     2.0590     6.2430 ha         1 88M       0.153000
     39 H14          2.6630    -2.0390     3.5400 h4         1 88M       0.132000
     40 H7           1.2210     4.8030     3.2830 hc         1 88M       0.011367
     41 H8          -0.1330     4.3790     4.3400 hc         1 88M       0.011367
     42 H9           1.0950     5.5270     4.8920 hc         1 88M       0.011367
     43 H10         -3.5750    -4.1240     3.8220 hc         1 88M       0.001700
     44 H11         -2.1310    -3.2880     3.2320 hc         1 88M       0.001700
     45 H12         -2.7290    -4.7230     2.3880 hc         1 88M       0.001700
     46 H15          5.1260    -2.2710     5.7200 h1         1 88M       0.022700
     47 H16          3.7450    -2.6040     6.7750 h1         1 88M       0.022700
     48 H17          3.7520    -3.2030     5.1100 h1         1 88M       0.022700
     49 H18          2.7820     3.7610     4.9510 h1         1 88M       0.006200
     50 H19          1.3740     3.2370     5.8860 h1         1 88M       0.006200
     51 H20         -4.1610    -3.4950     1.1560 h1         1 88M       0.037700
     52 H21         -4.7900    -2.6770     2.5930 h1         1 88M       0.037700
     53 H22         -4.4750    -0.8220     0.1890 ho         1 88M       0.403500
     54 H23         -2.0630    -1.7690    -0.3240 ho         1 88M       0.403500
     55 H24         -2.5990     0.8210     1.4700 hn         1 88M       0.327800
     56 C20          4.0500    -2.3870     5.7580 c3         1 88M       0.051300
@<TRIPOS>BOND
     1     1     2 ar  
     2     1     8 ar  
     3     1    32 1   
     4     2     9 ar  
     5     2    33 1   
     6     3     4 ar  
     7     3    10 ar  
     8     3    34 1   
     9     4    11 ar  
    10     4    35 1   
    11     5     7 ar  
    12     5     8 ar  
    13     5    36 1   
    14     6    11 ar  
    15     6    12 ar  
    16     6    37 1   
    17     7     9 ar  
    18     7    15 1   
    19     8    23 1   
    20     9    27 1   
    21    10    12 ar  
    22    10    27 1   
    23    11    29 1   
    24    12    30 1   
    25    13    16 2   
    26    13    17 1   
    27    13    38 1   
    28    14    15 2   
    29    14    22 1   
    30    14    39 1   
    31    15    16 1   
    32    16    28 1   
    33    17    22 1   
    34    17    24 2   
    35    18    20 1   
    36    18    40 1   
    37    18    41 1   
    38    18    42 1   
    39    19    21 1   
    40    19    43 1   
    41    19    44 1   
    42    19    45 1   
    43    20    28 1   
    44    20    49 1   
    45    20    50 1   
    46    21    31 1   
    47    21    51 1   
    48    21    52 1   
    49    22    56 1   
    50    23    31 3   
    51    23    55 1   
    52    25    31 1   
    53    25    53 1   
    54    26    31 1   
    55    26    54 1   
    56    46    56 1   
    57    47    56 1   
    58    48    56 1   
@<TRIPOS>SUBSTRUCTURE
     1 88M         1 TEMP              0 ****  ****    0 ROOT
