@<TRIPOS>MOLECULE
88N
   60    62     1     0     0
SMALL
bcc


@<TRIPOS>ATOM
      1 C23        -0.8590   -1.8870   -0.7460 ca        1 88N     -0.141000
      2 C27        -2.7170   -0.8300    0.3660 ca        1 88N     -0.141000
      3 C24        -0.3510   -2.2780    0.4900 ca        1 88N     -0.144500
      4 C26        -2.2120   -1.2270    1.6000 ca        1 88N     -0.144500
      5 C5         -4.6840   -8.1060    3.9500 ca        1 88N     -0.067000
      6 C6         -4.5770   -6.7550    3.7100 ca        1 88N     -0.154000
      7 C8         -6.5080   -6.8140    2.2050 ca        1 88N     -0.183000
      8 C22        -2.0610   -1.1760   -0.8210 ca        1 88N     -0.135300
      9 C25        -1.0300   -1.9770    1.6820 ca        1 88N     -0.019300
     10 C4         -5.7080   -8.8540    3.3280 ca        1 88N      0.016400
     11 C7         -5.4900   -6.0710    2.8380 ca        1 88N      0.129600
     12 C9         -6.6120   -8.1770    2.4480 ca        1 88N     -0.026100
     13 C2         -6.9800  -10.5860    2.7410 cc        1 88N      0.321200
     14 C12        -5.9600   -3.8920    1.7580 c         1 88N      0.669100
     15 C17        -5.6580   -0.8860   -1.4040 c         1 88N      0.654100
     16 C30        -2.6470   -3.1270    4.0240 c         1 88N      0.931100
     17 C33        -0.5590   -2.6430    5.4680 c         1 88N      0.931100
     18 C1         -7.5300  -11.9540    2.6390 c3        1 88N     -0.098400
     19 C21        -2.6690   -0.8240   -2.1330 c3        1 88N     -0.025100
     20 C28        -0.4870   -2.4840    2.9720 c3        1 88N     -0.028100
     21 C14        -5.6470   -2.4110    1.8510 c3        1 88N     -0.192400
     22 C19        -5.0780   -1.3340   -2.7370 c3        1 88N     -0.152400
     23 C20        -3.6710   -1.8770   -2.5930 c3        1 88N     -0.073400
     24 C15        -6.4340   -1.5860    0.8370 c3        1 88N      0.098000
     25 C29        -1.3740   -2.3120    4.1950 c3        1 88N     -0.250700
     26 N3         -5.9420  -10.2270    3.4760 nd        1 88N     -0.513100
     27 N11        -5.3380   -4.6960    2.6950 n         1 88N     -0.447100
     28 N16        -6.0950   -1.8580   -0.5370 n         1 88N     -0.542900
     29 O13        -6.7430   -4.3320    0.8790 o         1 88N     -0.688100
     30 O18        -5.7830    0.3350   -1.1530 o         1 88N     -0.649100
     31 O31        -2.6430   -4.3910    3.8860 o         1 88N     -0.882300
     32 O34         0.5940   -3.1580    5.3430 o         1 88N     -0.882300
     33 O32        -3.7710   -2.5210    3.9040 o         1 88N     -0.882300
     34 O35        -1.0320   -2.3050    6.5920 o         1 88N     -0.882300
     35 S10        -7.7320   -9.2990    1.8310 ss        1 88N     -0.148100
     36 H23        -0.3230   -2.1520   -1.6670 ha        1 88N      0.112500
     37 H24         0.5850   -2.8530    0.5400 ha        1 88N      0.155000
     38 H27        -3.6580   -0.2570    0.3170 ha        1 88N      0.112500
     39 H26        -2.7770   -1.0040    2.5270 ha        1 88N      0.155000
     40 H8         -7.2160   -6.3260    1.5180 ha        1 88N      0.168000
     41 H211       -1.8640   -0.7210   -2.9080 hc        1 88N      0.038200
     42 H212       -3.1810    0.1730   -2.0500 hc        1 88N      0.038200
     43 H281       -0.2720   -3.5850    2.8700 hc        1 88N      0.066200
     44 H282        0.4980   -1.9780    3.1710 hc        1 88N      0.066200
     45 H11        -4.5990   -4.2540    3.2720 hn        1 88N      0.429500
     46 H11C       -8.4110  -11.9630    1.9500 hc        1 88N      0.041700
     47 H12C       -7.8580  -12.3240    3.6430 hc        1 88N      0.041700
     48 H13C       -6.7580  -12.6600    2.2400 hc        1 88N      0.041700
     49 H141       -4.5330   -2.2590    1.7370 hc        1 88N      0.125200
     50 H142       -5.8830   -2.0450    2.8890 hc        1 88N      0.125200
     51 H191       -5.7370   -2.1170   -3.1960 hc        1 88N      0.051200
     52 H192       -5.0760   -0.4430   -3.4180 hc        1 88N      0.051200
     53 H16        -5.9120   -2.8140   -0.7500 hn        1 88N      0.323500
     54 H29        -1.6730   -1.2320    4.3020 hc        1 88N      0.035700
     55 H201       -3.6740   -2.7400   -1.8750 hc        1 88N      0.044700
     56 H202       -3.3520   -2.2810   -3.5900 hc        1 88N      0.044700
     57 H151       -7.5340   -1.8040    0.9640 h1        1 88N      0.053700
     58 H152       -6.2560   -0.4930    1.0510 h1        1 88N      0.053700
     59 H5         -3.9700   -8.6080    4.6200 ha        1 88N      0.142000
     60 H6         -3.7560   -6.1670    4.1820 ha        1 88N      0.229000
@<TRIPOS>BOND
     1    1    3 ar  
     2    1    8 ar  
     3    1   36 1   
     4    2    4 ar  
     5    2    8 ar  
     6    2   38 1   
     7    3    9 ar  
     8    3   37 1   
     9    4    9 ar  
    10    4   39 1   
    11    5    6 ar  
    12    5   10 ar  
    13    5   59 1   
    14    6   11 ar  
    15    6   60 1   
    16    7   11 ar  
    17    7   12 ar  
    18    7   40 1   
    19    8   19 1   
    20    9   20 1   
    21   10   12 ar  
    22   10   26 1   
    23   11   27 1   
    24   12   35 1   
    25   13   18 1   
    26   13   26 2   
    27   13   35 1   
    28   14   21 1   
    29   14   27 1   
    30   14   29 2   
    31   15   22 1   
    32   15   28 1   
    33   15   30 2   
    34   16   25 1   
    35   16   31 1   
    36   16   33 1   
    37   17   25 1   
    38   17   32 1   
    39   17   34 1   
    40   18   46 1   
    41   18   47 1   
    42   18   48 1   
    43   19   23 1   
    44   19   41 1   
    45   19   42 1   
    46   20   25 1   
    47   20   43 1   
    48   20   44 1   
    49   21   24 1   
    50   21   49 1   
    51   21   50 1   
    52   22   23 1   
    53   22   51 1   
    54   22   52 1   
    55   23   55 1   
    56   23   56 1   
    57   24   28 1   
    58   24   57 1   
    59   24   58 1   
    60   25   54 1   
    61   27   45 1   
    62   28   53 1   
@<TRIPOS>SUBSTRUCTURE
     1 88N         1 TEMP              0 ****  ****    0 ROOT
