@<TRIPOS>MOLECULE
molecule
   31    32     1     0     0
SMALL
bcc


@<TRIPOS>ATOM
      1 C4           0.0000     0.0000     0.0000 cc         1 88P      -0.287600
      2 C5           1.4720     0.0000     0.0000 c          1 88P       0.613700
      3 C6           2.1140     0.0000     1.3790 c3         1 88P      -0.174400
      4 C7          -2.0450    -0.1710     0.8690 cd         1 88P      -0.176900
      5 C8          -0.9060     0.2130    -1.0060 cd         1 88P      -0.002600
      6 C10         -5.5020    -0.4490     2.3070 c3         1 88P       0.150400
      7 C3          -0.7350    -0.2460     1.1950 cc         1 88P      -0.029300
      8 C9          -3.1710    -0.3550     1.7910 c          1 88P       0.676700
      9 C2          -0.0750    -0.5290     2.5170 c3         1 88P      -0.017100
     10 C1           1.3630    -0.9960     2.2690 c3         1 88P      -0.078400
     11 C12         -0.5770     0.5080    -2.4460 c3         1 88P      -0.028800
     12 C11         -6.8570    -0.2970     1.6120 c3         1 88P      -0.097100
     13 N13         -2.1420     0.1110    -0.4810 na         1 88P      -0.138100
     14 O14          2.1230     0.0000    -1.0230 o          1 88P      -0.543100
     15 O16         -2.9630    -0.5980     2.9650 o          1 88P      -0.545000
     16 O15         -4.4370    -0.2540     1.3380 os         1 88P      -0.444900
     17 H1           3.1380    -0.3400     1.2770 hc         1 88P       0.071200
     18 H2           2.0030     0.9890     1.8060 hc         1 88P       0.071200
     19 H3          -5.4240     0.2750     3.1090 h1         1 88P       0.051200
     20 H4          -5.4140    -1.4490     2.7140 h1         1 88P       0.051200
     21 H5          -0.6230    -1.3060     3.0350 hc         1 88P       0.068700
     22 H6          -0.0630     0.3740     3.1160 hc         1 88P       0.068700
     23 H7           1.8700    -1.0340     3.2260 hc         1 88P       0.053200
     24 H8           1.3200    -1.9430     1.7460 hc         1 88P       0.053200
     25 H9          -1.4940     0.6360    -3.0070 hc         1 88P       0.060033
     26 H10         -0.0110    -0.3170    -2.8630 hc         1 88P       0.060033
     27 H11          0.0120     1.4150    -2.5040 hc         1 88P       0.060033
     28 H12         -7.6510    -0.4420     2.3340 hc         1 88P       0.047700
     29 H13         -6.9440    -1.0370     0.8260 hc         1 88P       0.047700
     30 H14         -6.9340     0.6950     1.1840 hc         1 88P       0.047700
     31 H15         -2.9970     0.2230    -0.9890 hn         1 88P       0.311700
@<TRIPOS>BOND
     1    11     5 1
     2    14     2 2
     3     5     1 2
     4     5    13 1
     5     2     1 1
     6     2     3 1
     7     1     7 1
     8    13     4 1
     9     3    10 1
    10     7     4 2
    11     7     9 1
    12     4     8 1
    13    15     8 2
    14     9    10 1
    15     8    16 1
    16    16     6 1
    17     6    12 1
    18     3    17 1
    19     3    18 1
    20     6    19 1
    21     6    20 1
    22     9    21 1
    23     9    22 1
    24    10    23 1
    25    10    24 1
    26    11    25 1
    27    11    26 1
    28    11    27 1
    29    12    28 1
    30    12    29 1
    31    12    30 1
    32    13    31 1
@<TRIPOS>SUBSTRUCTURE
     1 88P         1 TEMP              0 ****  ****    0 ROOT
