@<TRIPOS>MOLECULE
molecule
   40    41     1     0     0
SMALL
bcc


@<TRIPOS>ATOM
      1 O5           0.0000     0.0000     0.0000 oh         1 88Q      -0.600300
      2 C11          1.4290     0.0000     0.0000 c3         1 88Q       0.119400
      3 C10          1.9400     0.0000     1.4420 c3         1 88Q       0.121300
      4 C9           3.4660     0.1250     1.4440 c3         1 88Q      -0.115400
      5 C8           3.8570     1.4700     0.8250 c3         1 88Q      -0.110400
      6 O4           1.5590    -1.2200     2.0830 oh         1 88Q      -0.590300
      7 C12          1.3360     1.1860     2.1980 c3         1 88Q       0.157400
      8 O6           1.7650     2.4060     1.5890 os         1 88Q      -0.406100
      9 C7           3.1800     2.5990     1.6050 c3         1 88Q       0.150100
     10 C5           3.5190     3.9420     0.9550 c3         1 88Q       0.150100
     11 O3           3.1570     3.9080    -0.4270 os         1 88Q      -0.406100
     12 C6           3.4560     5.1100    -1.1400 c3         1 88Q       0.157400
     13 C4           2.7430     5.0590     1.6570 c3         1 88Q      -0.110400
     14 C3           3.0400     6.3920     0.9620 c3         1 88Q      -0.115400
     15 C2           2.6760     6.2740    -0.5210 c3         1 88Q       0.121300
     16 O2           3.0180     7.4880    -1.1940 oh         1 88Q      -0.590300
     17 C1           1.1750     6.0150    -0.6600 c3         1 88Q       0.119400
     18 O1           0.8570     5.7840    -2.0340 oh         1 88Q      -0.600300
     19 H5          -0.3140    -0.1890    -0.8690 ho         1 88Q       0.401000
     20 H111         1.7900    -0.8840    -0.5110 h1         1 88Q       0.033200
     21 H112         1.7900     0.8840    -0.5110 h1         1 88Q       0.033200
     22 H91C         3.8950    -0.6800     0.8610 hc         1 88Q       0.050700
     23 H92C         3.8310     0.0770     2.4630 hc         1 88Q       0.050700
     24 H4           2.0580    -1.9340     1.7230 ho         1 88Q       0.402000
     25 H121         0.2550     1.1250     2.1590 h1         1 88Q       0.066950
     26 H122         1.6670     1.1630     3.2290 h1         1 88Q       0.066950
     27 H81C         4.9330     1.5900     0.8750 hc         1 88Q       0.062200
     28 H82C         3.5320     1.4990    -0.2080 hc         1 88Q       0.062200
     29 H7           3.5320     2.5890     2.6290 h1         1 88Q       0.042700
     30 HA           4.5820     4.1330     1.0430 h1         1 88Q       0.042700
     31 H41C         1.6810     4.8520     1.6000 hc         1 88Q       0.062200
     32 H42C         3.0510     5.1160     2.6940 hc         1 88Q       0.062200
     33 H61C         3.1680     4.9950    -2.1770 h1         1 88Q       0.066950
     34 H62C         4.5180     5.3130    -1.0740 h1         1 88Q       0.066950
     35 H31C         2.4490     7.1770     1.4180 hc         1 88Q       0.050700
     36 H32C         4.0950     6.6220     1.0580 hc         1 88Q       0.050700
     37 H2           2.6620     8.2210    -0.7190 ho         1 88Q       0.402000
     38 H11C         0.9020     5.1450    -0.0750 h1         1 88Q       0.033200
     39 H12C         0.6250     6.8780    -0.3030 h1         1 88Q       0.033200
     40 H1          -0.0780     5.8130    -2.1500 ho         1 88Q       0.401000
@<TRIPOS>BOND
     1     1     2 1
     2     2     3 1
     3     3     4 1
     4     3     6 1
     5     3     7 1
     6     4     5 1
     7     5     9 1
     8     7     8 1
     9     8     9 1
    10     9    10 1
    11    10    11 1
    12    10    13 1
    13    11    12 1
    14    12    15 1
    15    13    14 1
    16    14    15 1
    17    15    16 1
    18    15    17 1
    19    17    18 1
    20     1    19 1
    21     2    20 1
    22     2    21 1
    23     4    22 1
    24     4    23 1
    25     6    24 1
    26     7    25 1
    27     7    26 1
    28     5    27 1
    29     5    28 1
    30     9    29 1
    31    10    30 1
    32    13    31 1
    33    13    32 1
    34    12    33 1
    35    12    34 1
    36    14    35 1
    37    14    36 1
    38    16    37 1
    39    17    38 1
    40    17    39 1
    41    18    40 1
@<TRIPOS>SUBSTRUCTURE
     1 88Q         1 TEMP              0 ****  ****    0 ROOT
