@<TRIPOS>MOLECULE
88Q
   40    41     1     0     0
SMALL
bcc


@<TRIPOS>ATOM
      1 O5          0.1030   -0.6010    0.1510 oh        1 88Q     -0.618800
      2 C11         1.4570   -0.2030   -0.0140 c3        1 88Q      0.099400
      3 C10         2.0500   -0.0570    1.3960 c3        1 88Q      0.127800
      4 C9          3.5700    0.1120    1.3290 c3        1 88Q     -0.075400
      5 C8          3.9460    1.4830    0.8150 c3        1 88Q     -0.107400
      6 O4          1.8180   -1.2360    2.1580 oh        1 88Q     -0.595800
      7 C12         1.4130    1.1420    2.1190 c3        1 88Q      0.102400
      8 O6          1.8100    2.3850    1.5610 os        1 88Q     -0.404600
      9 C7          3.2280    2.5790    1.5920 c3        1 88Q      0.144100
     10 C5          3.5150    3.9670    0.9990 c3        1 88Q      0.144100
     11 O3          3.1360    3.9300   -0.3800 os        1 88Q     -0.404600
     12 C6          3.3880    5.1550   -1.0520 c3        1 88Q      0.102400
     13 C4          2.7580    5.0580    1.7460 c3        1 88Q     -0.107400
     14 C3          2.9530    6.4050    1.0890 c3        1 88Q     -0.075400
     15 C2          2.6480    6.3410   -0.4100 c3        1 88Q      0.127800
     16 O2          3.1440    7.5540   -0.9650 oh        1 88Q     -0.595800
     17 C1          1.1360    6.2170   -0.6530 c3        1 88Q      0.099400
     18 O1          0.9280    6.4150   -2.0440 oh        1 88Q     -0.618800
     19 H5         -0.2790   -0.6550   -0.7320 ho        1 88Q      0.411000
     20 H111        2.0140   -0.9890   -0.5890 h1        1 88Q      0.045700
     21 H112        1.5130    0.7820   -0.5480 h1        1 88Q      0.045700
     22 H91C        4.0060   -0.6810    0.6700 hc        1 88Q      0.059200
     23 H92C        3.9830   -0.0440    2.3610 hc        1 88Q      0.059200
     24 H4          0.8750   -1.4360    2.0850 ho        1 88Q      0.420000
     25 H121        1.6790    1.1020    3.2080 h1        1 88Q      0.061200
     26 H122        0.2980    1.1270    1.9880 h1        1 88Q      0.061200
     27 H81C        3.6770    1.5750   -0.2710 hc        1 88Q      0.061700
     28 H82C        5.0530    1.6310    0.9080 hc        1 88Q      0.061700
     29 H7          3.5670    2.5790    2.6670 h1        1 88Q      0.041700
     30 HA          4.6260    4.1520    1.0620 h1        1 88Q      0.041700
     31 H41C        3.1190    5.0980    2.8050 hc        1 88Q      0.061700
     32 H42C        1.6680    4.7920    1.7640 hc        1 88Q      0.061700
     33 H61C        4.4890    5.3700   -1.0680 h1        1 88Q      0.061200
     34 H62C        3.0090    4.9790   -2.0940 h1        1 88Q      0.061200
     35 H31C        2.2920    7.1700    1.5720 hc        1 88Q      0.059200
     36 H32C        4.0130    6.7500    1.2140 hc        1 88Q      0.059200
     37 H2          2.8310    7.5930   -1.8780 ho        1 88Q      0.420000
     38 H11C        0.7890    5.1950   -0.3460 h1        1 88Q      0.045700
     39 H12C        0.5860    7.0050   -0.0730 h1        1 88Q      0.045700
     40 H1         -0.0160    6.3000   -2.2010 ho        1 88Q      0.411000
@<TRIPOS>BOND
     1    1    2 1   
     2    1   19 1   
     3    2    3 1   
     4    2   20 1   
     5    2   21 1   
     6    3    4 1   
     7    3    6 1   
     8    3    7 1   
     9    4    5 1   
    10    4   22 1   
    11    4   23 1   
    12    5    9 1   
    13    5   27 1   
    14    5   28 1   
    15    6   24 1   
    16    7    8 1   
    17    7   25 1   
    18    7   26 1   
    19    8    9 1   
    20    9   10 1   
    21    9   29 1   
    22   10   11 1   
    23   10   13 1   
    24   10   30 1   
    25   11   12 1   
    26   12   15 1   
    27   12   33 1   
    28   12   34 1   
    29   13   14 1   
    30   13   31 1   
    31   13   32 1   
    32   14   15 1   
    33   14   35 1   
    34   14   36 1   
    35   15   16 1   
    36   15   17 1   
    37   16   37 1   
    38   17   18 1   
    39   17   38 1   
    40   17   39 1   
    41   18   40 1   
@<TRIPOS>SUBSTRUCTURE
     1 88Q         1 TEMP              0 ****  ****    0 ROOT
