@<TRIPOS>MOLECULE
molecule
   30    30     1     0     0
SMALL
bcc


@<TRIPOS>ATOM
      1 C1           0.0000     0.0000     0.0000 c3         1 88R       0.135700
      2 O2           1.4280     0.0000     0.0000 os         1 88R      -0.337900
      3 C3           2.0460     0.0000     1.2120 ca         1 88R       0.060100
      4 C4           1.2920    -0.0000     2.3750 ca         1 88R      -0.189000
      5 C5           1.9220    -0.0010     3.6050 ca         1 88R      -0.093000
      6 C6           3.3020    -0.0000     3.6810 ca         1 88R      -0.014300
      7 C7           4.0600    -0.0000     2.5240 ca         1 88R      -0.191000
      8 C8           3.4350    -0.0060     1.2870 ca         1 88R       0.090100
      9 O9           4.1790    -0.0120     0.1480 os         1 88R      -0.341900
     10 C10          5.6000    -0.0180     0.3010 c3         1 88R       0.132700
     11 C11          3.9820    -0.0000     5.0240 c3         1 88R      -0.012100
     12 C12          4.2370    -1.4430     5.4680 c3         1 88R      -0.258700
     13 C13          5.0450    -1.4420     6.7400 c          1 88R       0.925600
     14 O14          5.3830    -0.3950     7.2400 o          1 88R      -0.882550
     15 O15          5.3880    -2.6040     7.3170 o          1 88R      -0.882550
     16 C16          2.9190    -2.1330     5.7100 c          1 88R       0.925600
     17 O17          2.1430    -1.6860     6.5200 o          1 88R      -0.882550
     18 O18          2.6080    -3.2450     5.0240 o          1 88R      -0.882550
     19 H11C        -0.3610    -0.0080    -1.0210 h1         1 88R       0.024367
     20 H12C        -0.3610     0.8880     0.5040 h1         1 88R       0.024367
     21 H13C        -0.3610    -0.8810     0.5170 h1         1 88R       0.024367
     22 H4           0.2110     0.0310     2.3190 ha         1 88R       0.114000
     23 H5           1.3310     0.0170     4.5130 ha         1 88R       0.164000
     24 H7           5.1400     0.0570     2.5840 ha         1 88R       0.132000
     25 H111         3.3480     0.4940     5.7500 hc         1 88R       0.045200
     26 H112         4.9260     0.5270     4.9510 hc         1 88R       0.045200
     27 H101         5.9070     0.8610     0.8560 h1         1 88R       0.029367
     28 H102         5.9010    -0.9080     0.8390 h1         1 88R       0.029367
     29 H103         6.0680    -0.0100    -0.6760 h1         1 88R       0.029367
     30 H12          4.7830    -1.9680     4.6930 hc         1 88R       0.038700
@<TRIPOS>BOND
     1     1     2 1   
     2     2     3 1   
     3     3     4 ar  
     4     3     8 ar  
     5     4     5 ar  
     6     5     6 ar  
     7     6     7 ar  
     8     6    11 1   
     9     7     8 ar  
    10     8     9 1   
    11     9    10 1   
    12    11    12 1   
    13    12    13 1   
    14    12    16 1   
    15    13    14 1   
    16    13    15 1   
    17    16    17 1   
    18    16    18 1   
    19     1    19 1   
    20     1    20 1   
    21     1    21 1   
    22     4    22 1   
    23     5    23 1   
    24     7    24 1   
    25    11    25 1   
    26    11    26 1   
    27    10    27 1   
    28    10    28 1   
    29    10    29 1   
    30    12    30 1   
@<TRIPOS>SUBSTRUCTURE
     1 88R         1 TEMP              0 ****  ****    0 ROOT
