@<TRIPOS>MOLECULE
88R
   30    30     1     0     0
SMALL
bcc


@<TRIPOS>ATOM
      1 C1          0.9490   -0.3580   -0.5800 c3        1 88R      0.121700
      2 O2          1.0330    0.7280    0.3350 os        1 88R     -0.344900
      3 C3          1.7910    0.4310    1.4660 ca        1 88R      0.009100
      4 C4          1.1350    0.3330    2.7030 ca        1 88R     -0.128000
      5 C5          1.8650    0.1370    3.8660 ca        1 88R     -0.139000
      6 C6          3.2680    0.0340    3.8230 ca        1 88R      0.014700
      7 C7          3.9240    0.1230    2.5910 ca        1 88R     -0.211000
      8 C8          3.1920    0.3160    1.4130 ca        1 88R      0.071100
      9 O9          3.7710    0.4140    0.1510 os        1 88R     -0.348900
     10 C10         5.1210   -0.0200    0.0720 c3        1 88R      0.118700
     11 C11         4.0370   -0.1530    5.0830 c3        1 88R     -0.033100
     12 C12         3.8910   -1.5480    5.6860 c3        1 88R     -0.257700
     13 C13         5.1920   -1.8540    6.4600 c         1 88R      0.927600
     14 O14         5.6540   -1.0180    7.2940 o         1 88R     -0.879800
     15 O15         5.8290   -2.9110    6.1580 o         1 88R     -0.879800
     16 C16         2.5960   -1.6720    6.5060 c         1 88R      0.927600
     17 O17         1.9340   -0.6240    6.8120 o         1 88R     -0.879800
     18 O18         2.1490   -2.8230    6.7880 o         1 88R     -0.879800
     19 H11C        0.4550   -1.2380   -0.1000 h1        1 88R      0.024033
     20 H12C        0.3220    0.0350   -1.4180 h1        1 88R      0.024033
     21 H13C        1.9660   -0.6410   -0.9470 h1        1 88R      0.024033
     22 H4          0.0400    0.4150    2.7320 ha        1 88R      0.121000
     23 H5          1.3780    0.0230    4.8600 ha        1 88R      0.218000
     24 H7          5.0190    0.0260    2.5620 ha        1 88R      0.134000
     25 H111        5.1230    0.0580    4.8950 hc        1 88R      0.058700
     26 H112        3.6690    0.5800    5.8550 hc        1 88R      0.058700
     27 H101        5.3360   -0.0340   -1.0260 h1        1 88R      0.031367
     28 H102        5.7950    0.7080    0.5890 h1        1 88R      0.031367
     29 H103        5.2470   -1.0390    0.5120 h1        1 88R      0.031367
     30 H12         3.8200   -2.3100    4.8640 hc        1 88R      0.033700
@<TRIPOS>BOND
     1    1    2 1   
     2    1   19 1   
     3    1   20 1   
     4    1   21 1   
     5    2    3 1   
     6    3    4 ar  
     7    3    8 ar  
     8    4    5 ar  
     9    4   22 1   
    10    5    6 ar  
    11    5   23 1   
    12    6    7 ar  
    13    6   11 1   
    14    7    8 ar  
    15    7   24 1   
    16    8    9 1   
    17    9   10 1   
    18   10   27 1   
    19   10   28 1   
    20   10   29 1   
    21   11   12 1   
    22   11   25 1   
    23   11   26 1   
    24   12   13 1   
    25   12   16 1   
    26   12   30 1   
    27   13   14 1   
    28   13   15 1   
    29   16   17 1   
    30   16   18 1   
@<TRIPOS>SUBSTRUCTURE
     1 88R         1 TEMP              0 ****  ****    0 ROOT
