@<TRIPOS>MOLECULE
molecule
   34    35     1     0     0
SMALL
bcc


@<TRIPOS>ATOM
      1 C5           0.0000     0.0000     0.0000 ca         1 88S      -0.054000
      2 C6           1.3620     0.0000     0.0000 ca         1 88S      -0.148000
      3 C8           1.3940     0.0010     2.4030 ca         1 88S      -0.077000
      4 C4          -0.7160    -0.0000     1.2140 ca         1 88S       0.126400
      5 C7           2.0720     0.0000     1.1980 ca         1 88S       0.029600
      6 C9           0.0010    -0.0000     2.4160 ca         1 88S      -0.056100
      7 C2          -2.4590    -0.0010     2.6370 cc         1 88S       0.411200
      8 C12          4.1580     0.6710     2.1290 c          1 88S       0.663100
      9 C17          8.3300     2.3230     4.1140 c          1 88S       0.579100
     10 C1          -3.9120    -0.0030     3.0390 c3         1 88S      -0.101400
     11 C14          5.6600     0.7570     2.0540 c3         1 88S      -0.184400
     12 C15          6.1840     1.5680     3.2400 c3         1 88S       0.125000
     13 N3          -2.0470    -0.0010     1.4260 nd         1 88S      -0.582100
     14 N19          9.6740     2.4010     4.0470 nz         1 88S      -0.672400
     15 N11          3.4720     0.0000     1.1830 ns         1 88S      -0.458100
     16 N16          7.6450     1.6530     3.1680 ns         1 88S      -0.547900
     17 O13          3.5650     1.2050     3.0430 o          1 88S      -0.584100
     18 O18          7.7350     2.8600     5.0290 o          1 88S      -0.479100
     19 S10         -1.1580     0.0010     3.7420 ss         1 88S      -0.081100
     20 H5          -0.5370     0.0000    -0.9410 ha         1 88S       0.156000
     21 H6           1.8980    -0.0000    -0.9410 ha         1 88S       0.135000
     22 H8           1.9450     0.0000     3.3360 ha         1 88S       0.164000
     23 H11          3.9650    -0.5080     0.4750 hn         1 88S       0.327500
     24 H11C        -4.3910     0.8940     2.6650 hc         1 88S       0.065033
     25 H12C        -4.4010    -0.8750     2.6210 hc         1 88S       0.065033
     26 H13C        -3.9870    -0.0290     4.1190 hc         1 88S       0.065033
     27 H141         6.0810    -0.2400     2.0840 hc         1 88S       0.071700
     28 H142         5.9480     1.2430     1.1300 hc         1 88S       0.071700
     29 H191        10.0630     1.4790     4.0750 hn         1 88S       0.481133
     30 H192         9.9400     2.8500     3.1930 hn         1 88S       0.481133
     31 H16          8.1340     1.2120     2.4140 hn         1 88S       0.327500
     32 H151         5.7630     2.5660     3.2100 h1         1 88S       0.099700
     33 H152         5.8960     1.0830     4.1650 h1         1 88S       0.099700
     34 H193        10.0110     2.9980     4.7770 hn         1 88S       0.481133
@<TRIPOS>BOND
     1     1     2 ar
     2     1     4 ar
     3     2     5 ar
     4     3     5 ar
     5     3     6 ar
     6     4     6 ar
     7     4    13 1
     8     5    15 1
     9     6    19 1
    10     7    10 1
    11     7    13 2
    12     7    19 1
    13     8    11 1
    14     8    15 1
    15     8    17 2
    16     9    14 1
    17     9    16 1
    18     9    18 2
    19    11    12 1
    20    12    16 1
    21     1    20 1
    22     2    21 1
    23     3    22 1
    24    15    23 1
    25    10    24 1
    26    10    25 1
    27    10    26 1
    28    11    27 1
    29    11    28 1
    30    14    29 1
    31    14    30 1
    32    16    31 1
    33    12    32 1
    34    12    33 1
    35    34    14 1
@<TRIPOS>SUBSTRUCTURE
     1 88S         1 TEMP              0 ****  ****    0 ROOT
