@<TRIPOS>MOLECULE
88U
   38    40     1     0     0
SMALL
bcc


@<TRIPOS>ATOM
      1 C21          0.0000     0.0000     0.0000 ca         1 88U      -0.129000
      2 C15         -5.1470     1.9530     3.3070 ca         1 88U      -0.151300
      3 C14         -4.3030     0.8460     3.4670 ca         1 88U       0.401600
      4 N13         -4.7840    -0.3950     3.6340 nb         1 88U      -0.606000
      5 C11         -3.9650    -1.4110     3.7820 ca         1 88U       0.598300
      6 C08          0.0320     0.1610     4.8750 c3         1 88U       0.211100
      7 C06          0.0040     0.0110     2.3980 ca         1 88U       0.029600
      8 C09         -2.0690    -0.0990     3.6160 ca         1 88U       0.548200
      9 C05          1.3920     0.0110     2.3970 ca         1 88U      -0.135500
     10 C04          2.0820     0.0000     1.2000 ca         1 88U      -0.129000
     11 C03          1.3870     0.0000     0.0000 ca         1 88U       0.104100
     12 C01          3.4930    -0.0010    -1.1050 c3         1 88U       0.243700
     13 O02          2.0660    -0.0010    -1.1790 os         1 88U      -0.308900
     14 N07         -0.6950     0.0220     3.6110 nh         1 88U      -0.352700
     15 N10         -2.6490    -1.2820     3.7750 nb         1 88U      -0.615000
     16 C16         -4.6060     3.1930     3.1390 ca         1 88U      -0.075000
     17 C17         -3.2270     3.3780     3.1250 ca         1 88U      -0.103000
     18 C18         -2.3760     2.3230     3.2790 ca         1 88U      -0.063000
     19 C19         -2.9000     1.0370     3.4520 ca         1 88U      -0.280600
     20 C20         -0.6910     0.0050     1.1960 ca         1 88U      -0.135500
     21 H1          -0.5410    -0.0020    -0.9380 ha         1 88U       0.115500
     22 H2          -6.2230     1.8240     3.3160 ha         1 88U       0.122000
     23 H3          -5.2380    -2.7770     4.8060 hc         1 88U       0.019700
     24 H4          -5.0860    -3.0740     3.0680 hc         1 88U       0.019700
     25 H5          -3.7580    -3.4960     4.1580 hc         1 88U       0.019700
     26 H6           0.7140    -0.6730     4.9930 h1         1 88U       0.007700
     27 H7          -0.6720     0.1710     5.6980 h1         1 88U       0.007700
     28 H8           0.5930     1.0880     4.8690 h1         1 88U       0.007700
     29 H9           1.9350     0.0110     3.3350 ha         1 88U       0.114500
     30 H10          3.1650    -0.0000     1.1990 ha         1 88U       0.115500
     31 H11          3.8270     0.8820    -0.5740 h1         1 88U      -0.004300
     32 H12          3.9060     0.0010    -2.1060 h1         1 88U      -0.004300
     33 H13          3.8270    -0.8870    -0.5780 h1         1 88U      -0.004300
     34 H14         -5.2600     4.0470     3.0150 ha         1 88U       0.105000
     35 H15         -2.8230     4.3740     2.9900 ha         1 88U       0.106000
     36 H16         -1.3050     2.4790     3.2660 ha         1 88U       0.119000
     37 H17         -1.7740     0.0050     1.1960 ha         1 88U       0.114500
     38 C12         -4.5530    -2.7860     3.9660 c3         1 88U      -0.034400
@<TRIPOS>BOND
     1     1    11 ar  
     2     1    20 ar  
     3     1    21 1   
     4     2     3 ar  
     5     2    16 ar  
     6     2    22 1   
     7     3     4 ar  
     8     3    19 ar  
     9     4     5 ar  
    10     5    15 ar  
    11     5    38 1   
    12     6    14 1   
    13     6    26 1   
    14     6    27 1   
    15     6    28 1   
    16     7     9 ar  
    17     7    14 1   
    18     7    20 ar  
    19     8    14 1   
    20     8    15 ar  
    21     8    19 ar  
    22     9    10 ar  
    23     9    29 1   
    24    10    11 ar  
    25    10    30 1   
    26    11    13 1   
    27    12    13 1   
    28    12    31 1   
    29    12    32 1   
    30    12    33 1   
    31    16    17 ar  
    32    16    34 1   
    33    17    18 ar  
    34    17    35 1   
    35    18    19 ar  
    36    18    36 1   
    37    20    37 1   
    38    23    38 1   
    39    24    38 1   
    40    25    38 1   
@<TRIPOS>SUBSTRUCTURE
     1 88U         1 TEMP              0 ****  ****    0 ROOT
