@<TRIPOS>MOLECULE
molecule
   59    61     1     0     0
SMALL
bcc


@<TRIPOS>ATOM
      1 C23          0.0000     0.0000     0.0000 ca         1 88V      -0.150500
      2 C27         -0.0000     0.0010     2.3940 ca         1 88V      -0.150500
      3 C24          1.3830     0.0000     0.0000 ca         1 88V      -0.080500
      4 C26          1.3820     0.0010     2.3940 ca         1 88V      -0.080500
      5 C5         -12.3270    -8.0560     3.7010 ca         1 88V      -0.069000
      6 C6         -11.7300    -6.8520     3.4860 ca         1 88V      -0.121000
      7 C8         -11.0070    -7.5650     1.3070 ca         1 88V      -0.055000
      8 C22         -0.6920     0.0000     1.1970 ca         1 88V      -0.136300
      9 C25          2.0730     0.0000     1.1970 ca         1 88V      -0.015300
     10 C4         -12.2830    -9.0650     2.7180 ca         1 88V       0.116400
     11 C7         -11.0640    -6.5930     2.2890 ca         1 88V       0.083600
     12 C9         -11.6130    -8.8000     1.5170 ca         1 88V      -0.058100
     13 C2         -12.6280   -11.0440     1.7070 cc         1 88V       0.395200
     14 C12         -9.1860    -4.9020     1.1960 c          1 88V       0.649100
     15 C30          5.5930     1.4430     1.3200 c          1 88V       0.912600
     16 C33          3.6930     2.1150    -0.0910 c          1 88V       0.912600
     17 C17         -4.8480    -2.6080     1.1970 c          1 88V       0.776100
     18 C1         -13.1490   -12.4530     1.5740 c3         1 88V      -0.097400
     19 C21         -2.1990     0.0000     1.1970 c3         1 88V      -0.036100
     20 C28          3.5800    -0.0000     1.1970 c3         1 88V      -0.006100
     21 C14         -8.4330    -3.5980     1.1970 c3         1 88V      -0.196400
     22 C20         -2.7080    -1.4420     1.1970 c3         1 88V       0.124000
     23 C15         -6.9280    -3.8770     1.1970 c3         1 88V       0.148000
     24 C29          4.0910     1.4420     1.1970 c3         1 88V      -0.259700
     25 N3         -12.8040   -10.3070     2.7360 nd         1 88V      -0.587100
     26 N11        -10.5340    -4.9020     1.1960 ns         1 88V      -0.538100
     27 N19         -4.1740    -1.4420     1.1970 ns         1 88V      -0.599900
     28 N16         -6.1960    -2.6080     1.1970 ns         1 88V      -0.623900
     29 O13         -8.5800    -5.9530     1.1970 o          1 88V      -0.574100
     30 O31          6.1930     0.3970     1.4010 o          1 88V      -0.872550
     31 O34          4.5420     2.5520    -0.8330 o          1 88V      -0.872550
     32 O18         -4.2400    -3.6620     1.1960 o          1 88V      -0.656100
     33 O32          6.2640     2.6060     1.3410 o          1 88V      -0.872550
     34 O35          2.3950     2.2310    -0.4150 o          1 88V      -0.872550
     35 S10        -11.7300   -10.2350     0.5020 ss         1 88V      -0.080100
     36 H23         -0.5410    -0.0000    -0.9380 ha         1 88V       0.093500
     37 H24          1.9240    -0.0000    -0.9380 ha         1 88V       0.136000
     38 H27         -0.5420     0.0010     3.3320 ha         1 88V       0.093500
     39 H26          1.9240     0.0010     3.3320 ha         1 88V       0.136000
     40 H8         -10.4890    -7.3660     0.3760 ha         1 88V       0.179000
     41 H211        -2.5600     0.5110     0.3130 hc         1 88V       0.032700
     42 H212        -2.5600     0.5110     2.0820 hc         1 88V       0.032700
     43 H281         3.9410    -0.5110     2.0810 hc         1 88V       0.036200
     44 H282         3.9410    -0.5110     0.3120 hc         1 88V       0.036200
     45 H11        -11.1490    -4.1130     1.1670 hn         1 88V       0.299500
     46 H11C       -12.7050   -13.0750     2.3410 hc         1 88V       0.058367
     47 H12C       -14.2260   -12.4520     1.6870 hc         1 88V       0.058367
     48 H13C       -12.8890   -12.8430     0.5970 hc         1 88V       0.058367
     49 H141        -8.6950    -3.0300     2.0810 hc         1 88V       0.059700
     50 H142        -8.6940    -3.0290     0.3130 hc         1 88V       0.059700
     51 H29          3.6600     1.9780     2.0330 hc         1 88V       0.035700
     52 H19         -4.6740    -0.5750     1.1990 hn         1 88V       0.297500
     53 H16         -6.6960    -1.7420     1.2230 hn         1 88V       0.295500
     54 H201        -2.3480    -1.9530     2.0820 h1         1 88V       0.057700
     55 H202        -2.3470    -1.9530     0.3130 h1         1 88V       0.057700
     56 H151        -6.6660    -4.4450     2.0820 h1         1 88V       0.066200
     57 H152        -6.6660    -4.4450     0.3120 h1         1 88V       0.066200
     58 H5         -12.8410    -8.2400     4.6370 ha         1 88V       0.154000
     59 H6         -11.7720    -6.0880     4.2520 ha         1 88V       0.146000
@<TRIPOS>BOND
     1     1     3 ar
     2     1     8 ar
     3     2     4 ar
     4     2     8 ar
     5     3     9 ar
     6     4     9 ar
     7     5     6 ar
     8     5    10 ar
     9     6    11 ar
    10     7    11 ar
    11     7    12 ar
    12     8    19 1
    13     9    20 1
    14    10    12 ar
    15    10    25 1
    16    11    26 1
    17    12    35 1
    18    13    18 1
    19    13    25 2
    20    13    35 1
    21    14    21 1
    22    14    26 1
    23    14    29 2
    24    15    24 1
    25    15    30 1
    26    15    33 1
    27    16    24 1
    28    16    31 1
    29    16    34 1
    30    17    27 1
    31    17    28 1
    32    17    32 2
    33    19    22 1
    34    20    24 1
    35    21    23 1
    36    22    27 1
    37    23    28 1
    38     1    36 1
    39     3    37 1
    40     2    38 1
    41     4    39 1
    42     5    58 1
    43     6    59 1
    44     7    40 1
    45    19    41 1
    46    19    42 1
    47    20    43 1
    48    20    44 1
    49    26    45 1
    50    18    46 1
    51    18    47 1
    52    18    48 1
    53    21    49 1
    54    21    50 1
    55    24    51 1
    56    27    52 1
    57    28    53 1
    58    22    54 1
    59    22    55 1
    60    23    56 1
    61    23    57 1
@<TRIPOS>SUBSTRUCTURE
     1 88V         1 TEMP              0 ****  ****    0 ROOT
