@<TRIPOS>MOLECULE
88V
   59    61     1     0     0
SMALL
bcc


@<TRIPOS>ATOM
      1 C23        -1.7600   -0.7220    3.7110 ca        1 88V     -0.132500
      2 C27        -0.0650   -2.4270    3.4860 ca        1 88V     -0.132500
      3 C24        -1.0910    0.0640    2.7770 ca        1 88V     -0.125500
      4 C26         0.5990   -1.6440    2.5490 ca        1 88V     -0.125500
      5 C5         -8.6430   -6.6870    2.8020 ca        1 88V     -0.058000
      6 C6         -7.7690   -5.8080    2.2030 ca        1 88V     -0.176000
      7 C8         -9.1370   -5.7300    0.1760 ca        1 88V     -0.162000
      8 C22        -1.3010   -2.0120    3.9990 ca        1 88V     -0.139300
      9 C25         0.0320   -0.4390    2.1050 ca        1 88V     -0.002300
     10 C4         -9.7920   -7.1140    2.1040 ca        1 88V      0.021400
     11 C7         -7.9890   -5.3100    0.8760 ca        1 88V      0.123600
     12 C9        -10.0200   -6.6150    0.7810 ca        1 88V     -0.031100
     13 C2        -11.7020   -8.1700    1.6580 cc        1 88V      0.332200
     14 C12        -7.1180   -3.6920   -0.8150 c         1 88V      0.667100
     15 C30         0.1350    0.7840   -1.5130 c         1 88V      0.928600
     16 C33        -1.5580   -0.7210   -0.2610 c         1 88V      0.928600
     17 C17        -3.9570   -3.3940    1.7300 c         1 88V      0.748100
     18 C1        -12.8940   -9.0330    1.7910 c3        1 88V     -0.104400
     19 C21        -2.2030   -3.0060    4.6320 c3        1 88V     -0.050100
     20 C28         0.5360    0.2080    0.8660 c3        1 88V     -0.023100
     21 C14        -5.9520   -2.7830   -1.1520 c3        1 88V     -0.158400
     22 C20        -2.5720   -4.1160    3.6260 c3        1 88V      0.100000
     23 C15        -5.2000   -2.1500    0.0230 c3        1 88V      0.067000
     24 C29        -0.5590    0.4270   -0.1740 c3        1 88V     -0.246700
     25 N3        -10.7690   -8.0010    2.5800 nd        1 88V     -0.518100
     26 N11        -7.0340   -4.4480    0.3480 n         1 88V     -0.464100
     27 N19        -2.6960   -3.7380    2.2460 n         1 88V     -0.534900
     28 N16        -4.0300   -2.8840    0.4330 n         1 88V     -0.539900
     29 O13        -8.1010   -3.7690   -1.5850 o         1 88V     -0.644100
     30 O31         1.1090    0.0870   -1.9240 o         1 88V     -0.879800
     31 O34        -1.2760   -1.9150    0.1000 o         1 88V     -0.879800
     32 O18        -5.0110   -3.6880    2.3840 o         1 88V     -0.771100
     33 O32        -0.2470    1.8330   -2.1140 o         1 88V     -0.879800
     34 O35        -2.7590   -0.4770   -0.6100 o         1 88V     -0.879800
     35 S10       -11.4610   -7.2780    0.1780 ss        1 88V     -0.106100
     36 H23        -2.6950   -0.3600    4.1620 ha        1 88V      0.105500
     37 H24        -1.5000    1.0420    2.4820 ha        1 88V      0.131000
     38 H27         0.3340   -3.4110    3.7660 ha        1 88V      0.105500
     39 H26         1.5190   -2.0140    2.0740 ha        1 88V      0.131000
     40 H8         -9.3400   -5.3590   -0.8430 ha        1 88V      0.180000
     41 H211       -3.1400   -2.5070    4.9930 hc        1 88V      0.029700
     42 H212       -1.7130   -3.4890    5.5180 hc        1 88V      0.029700
     43 H281        1.3300   -0.4340    0.3930 hc        1 88V      0.046700
     44 H282        1.0000    1.1990    1.1180 hc        1 88V      0.046700
     45 H11        -6.2390   -4.2740    0.9450 hn        1 88V      0.377500
     46 H11C      -12.5930  -10.0960    1.9670 hc        1 88V      0.047367
     47 H12C      -13.5080   -8.9840    0.8590 hc        1 88V      0.047367
     48 H13C      -13.5260   -8.7000    2.6530 hc        1 88V      0.047367
     49 H141       -6.3710   -1.9530   -1.7820 hc        1 88V      0.084700
     50 H142       -5.2490   -3.3740   -1.8000 hc        1 88V      0.084700
     51 H29        -1.1620    1.3310    0.1240 hc        1 88V      0.035700
     52 H19        -1.9050   -3.2510    1.8460 hn        1 88V      0.362500
     53 H16        -3.1620   -2.5130    0.0240 hn        1 88V      0.400500
     54 H201       -3.5340   -4.5930    3.9670 h1        1 88V      0.039700
     55 H202       -1.7530   -4.8930    3.6640 h1        1 88V      0.039700
     56 H151       -5.9060   -1.9920    0.8850 h1        1 88V      0.081700
     57 H152       -4.8360   -1.1320   -0.3340 h1        1 88V      0.081700
     58 H5         -8.4530   -7.0560    3.8210 ha        1 88V      0.138000
     59 H6         -6.8730   -5.4660    2.7560 ha        1 88V      0.174000
@<TRIPOS>BOND
     1    1    3 ar  
     2    1    8 ar  
     3    1   36 1   
     4    2    4 ar  
     5    2    8 ar  
     6    2   38 1   
     7    3    9 ar  
     8    3   37 1   
     9    4    9 ar  
    10    4   39 1   
    11    5    6 ar  
    12    5   10 ar  
    13    5   58 1   
    14    6   11 ar  
    15    6   59 1   
    16    7   11 ar  
    17    7   12 ar  
    18    7   40 1   
    19    8   19 1   
    20    9   20 1   
    21   10   12 ar  
    22   10   25 1   
    23   11   26 1   
    24   12   35 1   
    25   13   18 1   
    26   13   25 2   
    27   13   35 1   
    28   14   21 1   
    29   14   26 1   
    30   14   29 2   
    31   15   24 1   
    32   15   30 1   
    33   15   33 1   
    34   16   24 1   
    35   16   31 1   
    36   16   34 1   
    37   17   27 1   
    38   17   28 1   
    39   17   32 2   
    40   18   46 1   
    41   18   47 1   
    42   18   48 1   
    43   19   22 1   
    44   19   41 1   
    45   19   42 1   
    46   20   24 1   
    47   20   43 1   
    48   20   44 1   
    49   21   23 1   
    50   21   49 1   
    51   21   50 1   
    52   22   27 1   
    53   22   54 1   
    54   22   55 1   
    55   23   28 1   
    56   23   56 1   
    57   23   57 1   
    58   24   51 1   
    59   26   45 1   
    60   27   52 1   
    61   28   53 1   
@<TRIPOS>SUBSTRUCTURE
     1 88V         1 TEMP              0 ****  ****    0 ROOT
