@<TRIPOS>MOLECULE
88W
   39    40     1     0     0
SMALL
bcc


@<TRIPOS>ATOM
      1 C1           0.0000     0.0000     0.0000 c3         1 88W      -0.009100
      2 C14         10.5600     2.2780     7.5760 ca         1 88W      -0.042000
      3 C13          9.2380     2.0510     7.3460 ca         1 88W      -0.065000
      4 C2           1.5300     0.0000     0.0000 c3         1 88W       0.068000
      5 C17          9.7660     0.1280     6.0060 ca         1 88W      -0.056000
      6 C15         11.5390     1.4290     7.0220 ca         1 88W       0.074400
      7 C12          8.8260     0.9760     6.5610 ca         1 88W      -0.033400
      8 C16         11.1220     0.3470     6.2390 ca         1 88W      -0.025100
      9 C19         13.5640     0.5850     6.5220 cc         1 88W       0.378200
     10 C9           6.9550    -0.0030     4.9500 c          1 88W       0.609100
     11 C4           3.3440    -0.0000     1.6260 c          1 88W       0.581100
     12 C21         15.0680     0.5100     6.5400 c3         1 88W       0.013600
     13 C8           5.4730    -0.0020     4.6750 c3         1 88W      -0.122400
     14 C7           5.2340    -0.0020     3.1640 c3         1 88W       0.079000
     15 N20         12.8810     1.4830     7.1240 nd         1 88W      -0.457100
     16 N3           2.0190     0.0000     1.3810 ns         1 88W      -0.227900
     17 N11          7.4040    -0.0040     6.2210 ns         1 88W      -0.212100
     18 N6           3.7950    -0.0010     2.8970 ns         1 88W      -0.233900
     19 O10          7.7420    -0.0030     4.0290 o          1 88W      -0.598100
     20 O5           4.1340     0.0000     0.7020 o          1 88W      -0.696100
     21 S18         12.5570    -0.5180     5.6960 ss         1 88W      -0.184100
     22 H11C        -0.3610     0.8850     0.5110 hc         1 88W       0.006033
     23 H12C        -0.3610    -0.8840     0.5110 hc         1 88W       0.006033
     24 H13C        -0.3610    -0.0000    -1.0210 hc         1 88W       0.006033
     25 H21          1.8910    -0.8840    -0.5110 h1         1 88W       0.023700
     26 H22          1.8910     0.8840    -0.5110 h1         1 88W       0.023700
     27 H6           3.1450     0.0060     3.6580 hn         1 88W       0.161500
     28 H71C         5.6830     0.8820     2.7270 h1         1 88W       0.040700
     29 H72C         5.6820    -0.8870     2.7270 h1         1 88W       0.040700
     30 H81          5.0240    -0.8860     5.1120 hc         1 88W       0.029700
     31 H82          5.0250     0.8830     5.1120 hc         1 88W       0.029700
     32 H11          7.0340    -0.6100     6.9260 hn         1 88W       0.193500
     33 H17          9.4490    -0.7080     5.3950 ha         1 88W       0.147000
     34 H14         10.8620     3.1180     8.1890 ha         1 88W       0.118000
     35 H3           1.3700     0.0010     2.1420 hn         1 88W       0.164500
     36 H211        15.4800     1.4310     6.1460 hc         1 88W       0.019367
     37 H212        15.3950    -0.3230     5.9290 hc         1 88W       0.019367
     38 H213        15.4110     0.3670     7.5580 hc         1 88W       0.019367
     39 H13          8.4970     2.7130     7.7790 ha         1 88W       0.109000
@<TRIPOS>BOND
     1     1     4 1   
     2     1    22 1   
     3     1    23 1   
     4     1    24 1   
     5     2     3 ar  
     6     2     6 ar  
     7     2    34 1   
     8     3     7 ar  
     9     3    39 1   
    10     4    16 1   
    11     4    25 1   
    12     4    26 1   
    13     5     7 ar  
    14     5     8 ar  
    15     5    33 1   
    16     6     8 ar  
    17     6    15 1   
    18     7    17 1   
    19     8    21 1   
    20     9    12 1   
    21     9    15 2   
    22     9    21 1   
    23    10    13 1   
    24    10    17 1   
    25    10    19 2   
    26    11    16 1   
    27    11    18 1   
    28    11    20 2   
    29    12    36 1   
    30    12    37 1   
    31    12    38 1   
    32    13    14 1   
    33    13    30 1   
    34    13    31 1   
    35    14    18 1   
    36    14    28 1   
    37    14    29 1   
    38    16    35 1   
    39    17    32 1   
    40    18    27 1   
@<TRIPOS>SUBSTRUCTURE
     1 88W         1 TEMP              0 ****  ****    0 ROOT
