@<TRIPOS>MOLECULE
molecule
   39    40     1     0     0
SMALL
bcc


@<TRIPOS>ATOM
      1 C1           0.0000     0.0000     0.0000 c3         1 88W      -0.113100
      2 C14         10.5600     2.2780     7.5760 ca         1 88W      -0.070000
      3 C13          9.2380     2.0510     7.3460 ca         1 88W      -0.103000
      4 C2           1.5300     0.0000     0.0000 c3         1 88W       0.129000
      5 C17          9.7660     0.1280     6.0060 ca         1 88W      -0.065000
      6 C15         11.5390     1.4290     7.0220 ca         1 88W       0.125400
      7 C12          8.8260     0.9760     6.5610 ca         1 88W       0.069600
      8 C16         11.1220     0.3470     6.2390 ca         1 88W      -0.069100
      9 C19         13.5640     0.5850     6.5220 cc         1 88W       0.403200
     10 C9           6.9550    -0.0030     4.9500 c          1 88W       0.684100
     11 C4           3.3440    -0.0000     1.6260 c          1 88W       0.781100
     12 C21         15.0680     0.5100     6.5400 c3         1 88W      -0.100400
     13 C8           5.4730    -0.0020     4.6750 c3         1 88W      -0.186400
     14 C7           5.2340    -0.0020     3.1640 c3         1 88W       0.143000
     15 N20         12.8810     1.4830     7.1240 nd         1 88W      -0.588100
     16 N3           2.0190     0.0000     1.3810 ns         1 88W      -0.608900
     17 N11          7.4040    -0.0040     6.2210 ns         1 88W      -0.593100
     18 N6           3.7950    -0.0010     2.8970 ns         1 88W      -0.613900
     19 O10          7.7420    -0.0030     4.0290 o          1 88W      -0.575100
     20 O5           4.1340     0.0000     0.7020 o          1 88W      -0.651100
     21 S18         12.5570    -0.5180     5.6960 ss         1 88W      -0.083100
     22 H11C        -0.3610     0.8850     0.5110 hc         1 88W       0.041367
     23 H12C        -0.3610    -0.8840     0.5110 hc         1 88W       0.041367
     24 H13C        -0.3610    -0.0000    -1.0210 hc         1 88W       0.041367
     25 H21          1.8910    -0.8840    -0.5110 h1         1 88W       0.052700
     26 H22          1.8910     0.8840    -0.5110 h1         1 88W       0.052700
     27 H6           3.1450     0.0060     3.6580 hn         1 88W       0.300500
     28 H71C         5.6830     0.8820     2.7270 h1         1 88W       0.069700
     29 H72C         5.6820    -0.8870     2.7270 h1         1 88W       0.069700
     30 H81          5.0240    -0.8860     5.1120 hc         1 88W       0.063200
     31 H82          5.0250     0.8830     5.1120 hc         1 88W       0.063200
     32 H11          7.0340    -0.6100     6.9260 hn         1 88W       0.328500
     33 H17          9.4490    -0.7080     5.3950 ha         1 88W       0.172000
     34 H14         10.8620     3.1180     8.1890 ha         1 88W       0.157000
     35 H3           1.3700     0.0010     2.1420 hn         1 88W       0.303500
     36 H211        15.4800     1.4310     6.1460 hc         1 88W       0.061033
     37 H212        15.3950    -0.3230     5.9290 hc         1 88W       0.061033
     38 H213        15.4110     0.3670     7.5580 hc         1 88W       0.061033
     39 H13          8.4970     2.7130     7.7790 ha         1 88W       0.144000
@<TRIPOS>BOND
     1     1     4 1   
     2     4    16 1   
     3    16    11 1   
     4    16    35 1   
     5    11    20 2   
     6    11    18 1   
     7    18    14 1   
     8    14    13 1   
     9    13    10 1   
    10    10    19 2   
    11    10    17 1   
    12    17     7 1   
    13     7     3 ar  
    14     7     5 ar  
    15     3     2 ar  
    16     2     6 ar  
    17     6     8 ar  
    18     6    15 1   
    19     8     5 ar  
    20     8    21 1   
    21    21     9 1   
    22     9    15 2   
    23     9    12 1   
    24     1    22 1   
    25     1    23 1   
    26     1    24 1   
    27     4    25 1   
    28     4    26 1   
    29    18    27 1   
    30    14    28 1   
    31    14    29 1   
    32    13    30 1   
    33    13    31 1   
    34    17    32 1   
    35     3    39 1   
    36     5    33 1   
    37     2    34 1   
    38    12    36 1   
    39    12    37 1   
    40    12    38 1   
@<TRIPOS>SUBSTRUCTURE
     1 88W         1 TEMP              0 ****  ****    0 ROOT
