@<TRIPOS>MOLECULE
88X
   33    35     1     0     0
SMALL
bcc


@<TRIPOS>ATOM
      1 CAA          0.0000     0.0000     0.0000 c          1 88X       0.701700
      2 CAB          1.3910     0.0000     0.0000 cc         1 88X      -0.184200
      3 CAC          2.0930     0.0000     1.2000 cd         1 88X      -0.210300
      4 NAD         -0.7060    -0.0000     1.2090 nc         1 88X      -0.423400
      5 CAE         -0.0080     0.0020     2.4240 cd         1 88X      -0.267600
      6 NAF          1.3930     0.0020     2.4190 na         1 88X       0.505700
      7 CAG          1.7760     0.0260     3.6920 cc         1 88X      -0.319300
      8 CAH          0.6790     0.0440     4.4450 cd         1 88X      -0.371900
      9 NAI         -0.4140     0.0260     3.6890 na         1 88X       0.459900
     10 OAJ         -0.6160     0.0030    -1.0660 o          1 88X      -0.615100
     11 CAK          0.6500     0.1500     5.9730 c          1 88X       0.682300
     12 CAL          1.8960    -0.1430     6.8140 ca         1 88X      -0.167600
     13 OAM         -0.3960     0.4770     6.5300 o          1 88X      -0.555100
     14 CAN          3.6230    -0.0260     1.1380 c3         1 88X       0.043800
     15 CAO          4.2950     0.3400     2.4630 c3         1 88X      -0.020100
     16 CAP          2.8800    -1.0160     6.3590 ca         1 88X      -0.058500
     17 CAQ          3.9810    -1.3120     7.1590 ca         1 88X      -0.110500
     18 CAR          4.1010    -0.7320     8.4190 ca         1 88X      -0.069000
     19 CAS          3.1190     0.1420     8.8760 ca         1 88X      -0.110500
     20 CAT          2.0200     0.4350     8.0770 ca         1 88X      -0.058500
     21 HAB          1.9310     0.0000    -0.9400 ha         1 88X       0.138000
     22 HAG          2.6440     0.6050     3.9860 h4         1 88X       0.188000
     23 HNAI        -1.3620     0.0340     4.0110 hn         1 88X       0.156700
     24 H1AN         3.9410    -1.0210     0.8520 hc         1 88X       0.031200
     25 H2AN         3.9510     0.6750     0.3790 hc         1 88X       0.031200
     26 H1AO         4.1200    -0.4470     3.1860 hc         1 88X       0.012700
     27 H2AO         5.3610     0.4570     2.3070 hc         1 88X       0.012700
     28 H3AO         3.8810     1.2700     2.8340 hc         1 88X       0.012700
     29 HAP          2.7880    -1.4680     5.3790 ha         1 88X       0.118500
     30 HAQ          4.7440    -1.9920     6.8000 ha         1 88X       0.110000
     31 HAR          4.9580    -0.9610     9.0410 ha         1 88X       0.107000
     32 HAS          3.2110     0.5940     9.8570 ha         1 88X       0.110000
     33 HAT          1.2570     1.1150     8.4360 ha         1 88X       0.118500
@<TRIPOS>BOND
     1     1     2 1   
     2     1     4 1   
     3     1    10 2   
     4     2     3 2   
     5     2    21 1   
     6     3     6 1   
     7     3    14 1   
     8     4     5 2   
     9     5     6 1   
    10     5     9 1   
    11     6     7 1   
    12     7     8 2   
    13     7    22 1   
    14     8     9 1   
    15     8    11 1   
    16     9    23 1   
    17    11    12 1   
    18    11    13 2   
    19    12    16 ar  
    20    12    20 ar  
    21    14    15 1   
    22    14    24 1   
    23    14    25 1   
    24    15    26 1   
    25    15    27 1   
    26    15    28 1   
    27    16    17 ar  
    28    16    29 1   
    29    17    18 ar  
    30    17    30 1   
    31    18    19 ar  
    32    18    31 1   
    33    19    20 ar  
    34    19    32 1   
    35    20    33 1   
@<TRIPOS>SUBSTRUCTURE
     1 88X         1 TEMP              0 ****  ****    0 ROOT
