@<TRIPOS>MOLECULE
molecule
   33    35     1     0     0
SMALL
bcc


@<TRIPOS>ATOM
      1 CAA          0.0000     0.0000     0.0000 c          1 88X       0.691700
      2 CAB          1.3910     0.0000     0.0000 cc         1 88X      -0.254200
      3 CAC          2.0930     0.0000     1.2000 cd         1 88X       0.000700
      4 NAD         -0.7060    -0.0000     1.2090 nd         1 88X      -0.450400
      5 CAE         -0.0080     0.0020     2.4240 cc         1 88X       0.127400
      6 NAF          1.3930     0.0020     2.4190 na         1 88X      -0.044300
      7 CAG          1.7760     0.0260     3.6920 cc         1 88X      -0.134300
      8 CAH          0.6790     0.0440     4.4450 cd         1 88X      -0.173900
      9 NAI         -0.4140     0.0260     3.6890 na         1 88X      -0.144100
     10 OAJ         -0.6160     0.0030    -1.0660 o          1 88X      -0.574100
     11 CAK          0.6500     0.1500     5.9730 c          1 88X       0.604300
     12 CAL          1.8960    -0.1430     6.8140 ca         1 88X      -0.155600
     13 OAM         -0.3960     0.4770     6.5300 o          1 88X      -0.514100
     14 CAN          3.6230    -0.0260     1.1380 c3         1 88X      -0.038200
     15 CAO          4.2950     0.3400     2.4630 c3         1 88X      -0.104100
     16 CAP          2.8800    -1.0160     6.3590 ca         1 88X      -0.085500
     17 CAQ          3.9810    -1.3120     7.1590 ca         1 88X      -0.137000
     18 CAR          4.1010    -0.7320     8.4190 ca         1 88X      -0.099000
     19 CAS          3.1190     0.1420     8.8760 ca         1 88X      -0.137000
     20 CAT          2.0200     0.4350     8.0770 ca         1 88X      -0.085500
     21 HAB          1.9310     0.0000    -0.9400 ha         1 88X       0.169000
     22 HAG          2.6440     0.6050     3.9860 h4         1 88X       0.202000
     23 HNAI        -1.3620     0.0340     4.0110 hn         1 88X       0.357700
     24 H1AN         3.9410    -1.0210     0.8520 hc         1 88X       0.069200
     25 H2AN         3.9510     0.6750     0.3790 hc         1 88X       0.069200
     26 H1AO         4.1200    -0.4470     3.1860 hc         1 88X       0.043033
     27 H2AO         5.3610     0.4570     2.3070 hc         1 88X       0.043033
     28 H3AO         3.8810     1.2700     2.8340 hc         1 88X       0.043033
     29 HAP          2.7880    -1.4680     5.3790 ha         1 88X       0.147000
     30 HAQ          4.7440    -1.9920     6.8000 ha         1 88X       0.140500
     31 HAR          4.9580    -0.9610     9.0410 ha         1 88X       0.138000
     32 HAS          3.2110     0.5940     9.8570 ha         1 88X       0.140500
     33 HAT          1.2570     1.1150     8.4360 ha         1 88X       0.147000
@<TRIPOS>BOND
     1    19    18 ar  
     2    19    20 ar  
     3    18    17 ar  
     4    20    12 ar  
     5    17    16 ar  
     6    15    14 1   
     7    12    16 ar  
     8    12    11 1   
     9    14     3 1   
    10    11    13 2   
    11    11     8 1   
    12     7     8 2   
    13     7     6 1   
    14     8     9 1   
    15     3     6 1   
    16     3     2 2   
    17     6     5 1   
    18     9     5 1   
    19     2     1 1   
    20     5     4 2   
    21     1     4 1   
    22     1    10 2   
    23     2    21 1   
    24     7    22 1   
    25     9    23 1   
    26    14    24 1   
    27    14    25 1   
    28    15    26 1   
    29    15    27 1   
    30    15    28 1   
    31    16    29 1   
    32    17    30 1   
    33    18    31 1   
    34    19    32 1   
    35    20    33 1   
@<TRIPOS>SUBSTRUCTURE
     1 88X         1 TEMP              0 ****  ****    0 ROOT
