@<TRIPOS>MOLECULE
molecule
   30    31     1     0     0
SMALL
bcc


@<TRIPOS>ATOM
      1 C4           0.0000     0.0000     0.0000 ca         1 88Y      -0.169000
      2 C5           4.3590    -0.7040     0.3900 cc         1 88Y      -0.147000
      3 C6           2.0810     0.0000     1.2160 ca         1 88Y      -0.066000
      4 C7           5.7390    -0.3830     0.7680 cd         1 88Y      -0.281600
      5 C8           1.3870     0.0000     0.0000 ca         1 88Y       0.200600
      6 C10          5.6510     0.5100     1.8220 cc         1 88Y      -0.028600
      7 C13          6.8770    -1.8750    -0.9930 c3         1 88Y      -0.187100
      8 C1          -0.0090    -0.0050     2.4000 ca         1 88Y      -0.157000
      9 C2          -0.6920    -0.0010     1.1960 ca         1 88Y      -0.102000
     10 C3           1.3710     0.0000     2.4170 ca         1 88Y      -0.103000
     11 C9           3.5600     0.0040     1.2290 cd         1 88Y      -0.073300
     12 C12          6.8140     1.1310     2.5500 c3         1 88Y      -0.022800
     13 N14          4.3500     0.7310     2.0840 na         1 88Y      -0.148100
     14 N15          2.0880    -0.0000    -1.2070 nv         1 88Y      -0.956200
     15 O16          8.0480    -0.5480     0.5700 o          1 88Y      -0.561100
     16 H1          -0.5410     0.0020    -0.9380 ha         1 88Y       0.136000
     17 H2           4.0410    -1.3740    -0.3990 ha         1 88Y       0.159000
     18 H3           7.8730    -2.2040    -1.2630 hc         1 88Y       0.058033
     19 H4           6.5040    -1.1950    -1.7500 hc         1 88Y       0.058033
     20 H5           6.2200    -2.7330    -0.9220 hc         1 88Y       0.058033
     21 H6          -0.5600    -0.0050     3.3320 ha         1 88Y       0.130000
     22 H7          -1.7750    -0.0030     1.1910 ha         1 88Y       0.130000
     23 H8           1.9010    -0.0010     3.3610 ha         1 88Y       0.127000
     24 H9           7.4200     1.6930     1.8500 hc         1 88Y       0.056367
     25 H10          6.4440     1.7940     3.3220 hc         1 88Y       0.056367
     26 H11          7.4150     0.3510     3.0020 hc         1 88Y       0.056367
     27 H12          4.0070     1.3380     2.8020 hn         1 88Y       0.296700
     28 H13          1.8820    -0.6890    -1.9040 hn         1 88Y       0.432800
     29 H14          2.8300     0.6540    -1.3540 hn         1 88Y       0.432800
     30 C11          6.9630    -0.9020     0.1550 c          1 88Y       0.613700
@<TRIPOS>BOND
     1    14     5 1   
     2    12     6 1   
     3    15    30 2   
     4     6     4 2   
     5     6    13 1   
     6    30     7 1   
     7    30     4 1   
     8     4     2 1   
     9    13    11 1   
    10     5     3 ar  
    11     5     1 ar  
    12     2    11 2   
    13    11     3 1   
    14     3    10 ar  
    15     1     9 ar  
    16    10     8 ar  
    17     9     8 ar  
    18     1    16 1   
    19     2    17 1   
    20     7    18 1   
    21     7    19 1   
    22     7    20 1   
    23     8    21 1   
    24     9    22 1   
    25    10    23 1   
    26    12    24 1   
    27    12    25 1   
    28    12    26 1   
    29    13    27 1   
    30    14    28 1   
    31    14    29 1   
@<TRIPOS>SUBSTRUCTURE
     1 88Y         1 TEMP              0 ****  ****    0 ROOT
