@<TRIPOS>MOLECULE
88Z
   80    85     1     0     0
SMALL
bcc


@<TRIPOS>ATOM
      1 C1           0.0000     0.0000     0.0000 ca         1 88Z       0.129100
      2 C2           1.4030     0.0000     0.0000 ca         1 88Z       0.159100
      3 C3           2.1030     0.0000     1.1720 ca         1 88Z      -0.260300
      4 C4           1.4150     0.0010     2.3970 ca         1 88Z       0.418600
      5 C5          -0.0020     0.0020     2.3930 ca         1 88Z      -0.158300
      6 C6          -0.6960     0.0000     1.1740 ca         1 88Z      -0.169000
      7 N7           2.0790     0.0010     3.5590 nb         1 88Z      -0.607000
      8 C8           1.4510     0.0010     4.7110 ca         1 88Z       0.451200
      9 C9           0.0640     0.0010     4.7890 ca         1 88Z      -0.342300
     10 C10         -0.6880     0.0020     3.6280 ca         1 88Z       0.187100
     11 O11         -0.6730     0.0050    -1.1810 os         1 88Z      -0.292900
     12 C12         -2.1000     0.0110    -1.1160 c3         1 88Z       0.239700
     13 O13          2.0730    -0.0000    -1.1820 os         1 88Z      -0.289900
     14 O14         -2.0430     0.0030     3.6740 os         1 88Z      -0.202200
     15 C15         -2.6420    -0.0990     4.8910 ca         1 88Z       0.059100
     16 C16         -3.1570    -1.3150     5.3100 ca         1 88Z      -0.068000
     17 C17         -3.7640    -1.4210     6.5470 ca         1 88Z      -0.132000
     18 C18         -3.8600    -0.3070     7.3700 ca         1 88Z      -0.064400
     19 C19         -3.3430     0.9130     6.9510 ca         1 88Z      -0.133000
     20 C20         -2.7300     1.0150     5.7170 ca         1 88Z       0.113900
     21 F21         -2.2240     2.2000     5.3110 f          1 88Z      -0.114900
     22 N22         -4.4770    -0.4140     8.6230 ns         1 88Z      -0.065100
     23 C23          3.5000    -0.0010    -1.1170 c3         1 88Z       0.199400
     24 C24          4.0750    -0.0010    -2.5350 c3         1 88Z      -0.044400
     25 C25          5.6030    -0.0010    -2.4670 c3         1 88Z       0.160800
     26 N26          6.1540    -0.0020    -3.8280 n3         1 88Z      -0.536600
     27 C27          5.8430     1.2550    -4.5250 c3         1 88Z       0.107300
     28 C28          6.3820     1.1870    -5.9560 c3         1 88Z       0.214900
     29 O29          7.7880     0.9250    -5.9170 os         1 88Z      -0.412600
     30 C30          8.1280    -0.2920    -5.2470 c3         1 88Z       0.214900
     31 C31          7.6060    -0.2400    -3.8100 c3         1 88Z       0.107300
     32 C32         -5.1690     0.6280     9.1230 c          1 88Z       0.614100
     33 C33         -5.8870     0.4930    10.4430 cx         1 88Z      -0.340000
     34 C34         -6.3010    -0.9070    10.8160 c          1 88Z       0.603100
     35 N35         -5.3890    -1.8990    10.8320 ns         1 88Z      -0.061100
     36 O36         -5.2170     1.6760     8.5130 o          1 88Z      -0.616100
     37 O37         -7.4560    -1.1410    11.1020 o          1 88Z      -0.602100
     38 C38         -5.7880    -3.2130    11.0970 ca         1 88Z      -0.112400
     39 C39         -5.0320    -4.0120    11.9460 ca         1 88Z      -0.080000
     40 C40         -5.4290    -5.3100    12.2060 ca         1 88Z      -0.115000
     41 C41         -6.5800    -5.8140    11.6230 ca         1 88Z       0.103900
     42 C42         -7.3340    -5.0190    10.7780 ca         1 88Z      -0.115000
     43 C43         -6.9440    -3.7200    10.5180 ca         1 88Z      -0.080000
     44 F44         -6.9650    -7.0820    11.8800 f          1 88Z      -0.124900
     45 C45         -6.8050     1.6400    10.8680 cx         1 88Z      -0.015400
     46 C46         -5.4650     1.4320    11.5750 cx         1 88Z      -0.015400
     47 H3           3.1870     0.0000     1.1570 ha         1 88Z       0.140000
     48 H6          -1.7790     0.0000     1.1650 ha         1 88Z       0.138000
     49 H8           2.0300    -0.0000     5.6260 h4         1 88Z      -0.025900
     50 H9          -0.4260     0.0010     5.7550 ha         1 88Z       0.128000
     51 H12         -2.4410    -0.8740    -0.5920 h1         1 88Z      -0.000967
     52 H12A        -2.4340     0.8950    -0.5860 h1         1 88Z      -0.000967
     53 H12B        -2.5080     0.0160    -2.1190 h1         1 88Z      -0.000967
     54 H16         -3.0830    -2.1850     4.6680 ha         1 88Z       0.122000
     55 H17         -4.1670    -2.3720     6.8730 ha         1 88Z       0.114000
     56 H19         -3.4150     1.7810     7.5950 ha         1 88Z       0.165000
     57 HN22        -4.3640    -1.2460     9.1670 hn         1 88Z       0.180500
     58 H23          3.8380     0.8840    -0.5910 h1         1 88Z       0.004200
     59 H23A         3.8380    -0.8850    -0.5910 h1         1 88Z       0.004200
     60 H24          3.7370    -0.8860    -3.0610 hc         1 88Z       0.033700
     61 H24A         3.7370     0.8830    -3.0620 hc         1 88Z       0.033700
     62 H25          5.9410    -0.8850    -1.9400 h1         1 88Z       0.009700
     63 H25A         5.9400     0.8840    -1.9410 h1         1 88Z       0.009700
     64 H27          6.3090     2.0810    -4.0020 h1         1 88Z       0.018700
     65 H27A         4.7690     1.3960    -4.5510 h1         1 88Z       0.018700
     66 H28          5.8810     0.3910    -6.4930 h1         1 88Z       0.012950
     67 H28A         6.2060     2.1340    -6.4530 h1         1 88Z       0.012950
     68 H30          9.2050    -0.4090    -5.2360 h1         1 88Z       0.012950
     69 H30A         7.6730    -1.1280    -5.7650 h1         1 88Z       0.012950
     70 H31          7.8100    -1.1840    -3.3180 h1         1 88Z       0.018700
     71 H31A         8.0960     0.5650    -3.2770 h1         1 88Z       0.018700
     72 HN35        -4.4190    -1.6870    10.7070 hn         1 88Z       0.173500
     73 H39         -4.1320    -3.6180    12.4020 ha         1 88Z       0.120000
     74 H40         -4.8400    -5.9330    12.8680 ha         1 88Z       0.122500
     75 H42         -8.2350    -5.4140    10.3240 ha         1 88Z       0.122500
     76 H43         -7.5360    -3.0990     9.8570 ha         1 88Z       0.120000
     77 H45         -6.8490     2.4810    10.1870 hc         1 88Z       0.061450
     78 H45A        -7.6820     1.3510    11.4340 hc         1 88Z       0.061450
     79 H46         -5.5230     1.0150    12.5730 hc         1 88Z       0.061450
     80 H46A        -4.6890     2.1460    11.3260 hc         1 88Z       0.061450
@<TRIPOS>BOND
     1     1     2 ar  
     2     1     6 ar  
     3     1    11 1   
     4     2     3 ar  
     5     2    13 1   
     6     3     4 ar  
     7     3    47 1   
     8     4     5 ar  
     9     4     7 ar  
    10     5     6 ar  
    11     5    10 ar  
    12     6    48 1   
    13     7     8 ar  
    14     8     9 ar  
    15     8    49 1   
    16     9    10 ar  
    17     9    50 1   
    18    10    14 1   
    19    11    12 1   
    20    12    51 1   
    21    12    52 1   
    22    12    53 1   
    23    13    23 1   
    24    14    15 1   
    25    15    16 ar  
    26    15    20 ar  
    27    16    17 ar  
    28    16    54 1   
    29    17    18 ar  
    30    17    55 1   
    31    18    19 ar  
    32    18    22 1   
    33    19    20 ar  
    34    19    56 1   
    35    20    21 1   
    36    22    32 1   
    37    22    57 1   
    38    23    24 1   
    39    23    58 1   
    40    23    59 1   
    41    24    25 1   
    42    24    60 1   
    43    24    61 1   
    44    25    26 1   
    45    25    62 1   
    46    25    63 1   
    47    26    27 1   
    48    26    31 1   
    49    27    28 1   
    50    27    64 1   
    51    27    65 1   
    52    28    29 1   
    53    28    66 1   
    54    28    67 1   
    55    29    30 1   
    56    30    31 1   
    57    30    68 1   
    58    30    69 1   
    59    31    70 1   
    60    31    71 1   
    61    32    33 1   
    62    32    36 2   
    63    33    34 1   
    64    33    45 1   
    65    33    46 1   
    66    34    35 1   
    67    34    37 2   
    68    35    38 1   
    69    35    72 1   
    70    38    39 ar  
    71    38    43 ar  
    72    39    40 ar  
    73    39    73 1   
    74    40    41 ar  
    75    40    74 1   
    76    41    42 ar  
    77    41    44 1   
    78    42    43 ar  
    79    42    75 1   
    80    43    76 1   
    81    45    46 1   
    82    45    77 1   
    83    45    78 1   
    84    46    79 1   
    85    46    80 1   
@<TRIPOS>SUBSTRUCTURE
     1 88Z         1 TEMP              0 ****  ****    0 ROOT
