@<TRIPOS>MOLECULE
890
   38    40     1     0     0
SMALL
bcc


@<TRIPOS>ATOM
      1 C01          0.0000     0.0000     0.0000 c3         1 890       0.248700
      2 O02          1.4290     0.0000     0.0000 os         1 890      -0.317900
      3 C03          2.0470     0.0000     1.2120 ca         1 890       0.034100
      4 C04          1.2940    -0.0040     2.3740 ca         1 890      -0.114000
      5 C05          1.9210    -0.0090     3.6060 ca         1 890      -0.197000
      6 C06          3.3070    -0.0090     3.6830 ca         1 890       0.063600
      7 N07          3.9390    -0.0150     4.9310 nh         1 890      -0.227800
      8 C08          5.3950    -0.1480     5.0150 c3         1 890       0.200100
      9 C09          3.1900     0.1060     6.0820 cc         1 890       0.143800
     10 C10          2.3250    -0.8950     6.4790 cd         1 890      -0.286200
     11 C11          1.5840    -0.7410     7.6570 c          1 890       0.792800
     12 O12          0.8230    -1.6310     7.9980 o          1 890      -0.629500
     13 O13          1.6890     0.3570     8.4220 os         1 890      -0.277200
     14 C14          2.5140     1.3760     8.0990 ca         1 890       0.177100
     15 C15          2.6010     2.5010     8.9090 ca         1 890      -0.132000
     16 C16          3.4490     3.5330     8.5650 ca         1 890      -0.046000
     17 C17          4.2180     3.4630     7.4130 ca         1 890      -0.135000
     18 C18          4.1450     2.3560     6.5960 ca         1 890      -0.043000
     19 C19          3.2930     1.3040     6.9330 ca         1 890      -0.177800
     20 C20          4.0670    -0.0050     2.5200 ca         1 890      -0.236000
     21 C21          3.4400    -0.0000     1.2850 ca         1 890       0.071600
     22 N22          4.2020    -0.0020     0.1110 nv         1 890      -0.441200
     23 H1          -0.3610     0.8840     0.5120 h1         1 890      -0.004300
     24 H2          -0.3610     0.0020    -1.0210 h1         1 890      -0.004300
     25 H3          -0.3610    -0.8850     0.5090 h1         1 890      -0.004300
     26 H4           0.2120    -0.0040     2.3170 ha         1 890       0.117000
     27 H5           1.3290    -0.0120     4.5130 ha         1 890       0.125000
     28 H6           5.8640     0.6900     4.5140 h1         1 890       0.010700
     29 H7           5.6970    -0.1610     6.0560 h1         1 890       0.010700
     30 H8           5.7010    -1.0720     4.5390 h1         1 890       0.010700
     31 H9           2.3180    -1.8430     5.9550 ha         1 890       0.153000
     32 H10          2.0050     2.5670     9.8110 ha         1 890       0.124000
     33 H11          3.5130     4.4080     9.2000 ha         1 890       0.106000
     34 H12          4.8790     4.2810     7.1550 ha         1 890       0.110000
     35 H13          4.7470     2.3020     5.6970 ha         1 890       0.115000
     36 H14          5.1480    -0.0060     2.5790 ha         1 890       0.121000
     37 H15          3.7480    -0.0010    -0.7810 hn         1 890       0.269800
     38 H16          5.2020     0.0060     0.1630 hn         1 890       0.269800
@<TRIPOS>BOND
     1     1     2 1   
     2     1    23 1   
     3     1    24 1   
     4     1    25 1   
     5     2     3 1   
     6     3     4 ar  
     7     3    21 ar  
     8     4     5 ar  
     9     4    26 1   
    10     5     6 ar  
    11     5    27 1   
    12     6     7 1   
    13     6    20 ar  
    14     7     8 1   
    15     7     9 1   
    16     8    28 1   
    17     8    29 1   
    18     8    30 1   
    19     9    10 2   
    20     9    19 1   
    21    10    11 1   
    22    10    31 1   
    23    11    12 2   
    24    11    13 1   
    25    13    14 1   
    26    14    15 ar  
    27    14    19 ar  
    28    15    16 ar  
    29    15    32 1   
    30    16    17 ar  
    31    16    33 1   
    32    17    18 ar  
    33    17    34 1   
    34    18    19 ar  
    35    18    35 1   
    36    20    21 ar  
    37    20    36 1   
    38    21    22 1   
    39    22    37 1   
    40    22    38 1   
@<TRIPOS>SUBSTRUCTURE
     1 890         1 TEMP              0 ****  ****    0 ROOT
