@<TRIPOS>MOLECULE
891
   47    49     1     0     0
SMALL
bcc


@<TRIPOS>ATOM
      1 C16          0.0000     0.0000     0.0000 ca         1 891       0.770900
      2 C13          1.3040     0.0010     2.3370 ca         1 891      -0.441400
      3 C11          1.9830     0.0030     3.6310 cc         1 891       0.017800
      4 C12         -0.1070     0.0010     2.2990 ca         1 891       0.450200
      5 C10          1.2210     0.0030     4.7580 cd         1 891      -0.043100
      6 C1           0.0950     0.0100    -2.4640 c3         1 891       0.165500
      7 C2           0.4670    -1.4250    -2.8410 c3         1 891      -0.016100
      8 C5          -2.0800     2.8840    -4.6190 c3         1 891       0.015700
      9 N8          -0.8180     0.0030     3.4700 n          1 891       0.014700
     10 C3          -0.7580     0.6260    -3.5760 c3         1 891      -0.035600
     11 C25          1.3880    -3.3480     8.3500 ca         1 891       0.091900
     12 C24          0.8980    -3.3490     7.0560 ca         1 891      -0.104000
     13 C23          1.0410    -2.2260     6.2610 ca         1 891      -0.136000
     14 C26          2.0170    -2.2220     8.8550 ca         1 891      -0.135000
     15 C27          2.1620    -1.0980     8.0630 ca         1 891       0.104900
     16 F28          2.7750     0.0010     8.5550 f          1 891      -0.116900
     17 C21          1.6750    -1.1000     6.7610 ca         1 891       0.117100
     18 O20          1.8170     0.0050     5.9810 os         1 891      -0.174200
     19 C9          -0.1910     0.0040     4.6610 c          1 891       0.588700
     20 O18         -0.8570     0.0050     5.6820 o          1 891      -0.666500
     21 C14          2.0120     0.0000     1.1300 ca         1 891       0.558200
     22 N15          1.3280     0.0000     0.0000 nb         1 891      -0.722000
     23 N17         -0.7120     0.0010     1.1170 nb         1 891      -0.727000
     24 C22         -2.2820     0.0030     3.4270 c3         1 891       0.039300
     25 N19         -0.6650     0.0060    -1.2120 nu         1 891      -0.470900
     26 S4          -1.0750     2.3720    -3.2000 s6         1 891       0.793000
     27 O6           0.1590     3.0750    -3.2400 o          1 891      -0.580300
     28 O7          -1.8760     2.4440    -2.0270 o          1 891      -0.580300
     29 H11          3.0370     0.2460     3.6890 ha         1 891       0.124000
     30 H1           0.9980     0.5950    -2.3370 h1         1 891       0.075700
     31 H2          -0.4130    -2.0540    -2.7780 hc         1 891       0.014033
     32 H2A          1.2230    -1.7930    -2.1580 hc         1 891       0.014033
     33 H2B          0.8530    -1.4440    -3.8520 hc         1 891       0.014033
     34 H5          -2.3350     3.9330    -4.5220 h1         1 891       0.061700
     35 H5A         -1.5180     2.7330    -5.5330 h1         1 891       0.061700
     36 H5B         -2.9880     2.2940    -4.6510 h1         1 891       0.061700
     37 H3          -1.7000     0.0940    -3.6440 h1         1 891       0.071200
     38 H3A         -0.2320     0.5490    -4.5190 h1         1 891       0.071200
     39 H24          0.4030    -4.2290     6.6650 ha         1 891       0.119000
     40 H23          0.6600    -2.2280     5.2470 ha         1 891       0.122000
     41 H26          2.3960    -2.2230     9.8690 ha         1 891       0.134000
     42 H14          3.0950     0.0000     1.1230 h4         1 891      -0.013900
     43 H22         -2.6300    -0.9020     2.9440 h1         1 891       0.034033
     44 H22A        -2.6740     0.0470     4.4360 h1         1 891       0.034033
     45 H22B        -2.6270     0.8650     2.8690 h1         1 891       0.034033
     46 HN19        -1.6640    -0.0420    -1.2340 hn         1 891       0.316800
     47 F29          1.2460    -4.4460     9.1250 f          1 891      -0.126900
@<TRIPOS>BOND
     1     1    22 ar  
     2     1    23 ar  
     3     1    25 1   
     4     2     3 1   
     5     2     4 ar  
     6     2    21 ar  
     7     3     5 2   
     8     3    29 1   
     9     4     9 1   
    10     4    23 ar  
    11     5    18 1   
    12     5    19 1   
    13     6     7 1   
    14     6    10 1   
    15     6    25 1   
    16     6    30 1   
    17     7    31 1   
    18     7    32 1   
    19     7    33 1   
    20     8    26 1   
    21     8    34 1   
    22     8    35 1   
    23     8    36 1   
    24     9    19 1   
    25     9    24 1   
    26    10    26 1   
    27    10    37 1   
    28    10    38 1   
    29    11    12 ar  
    30    11    14 ar  
    31    11    47 1   
    32    12    13 ar  
    33    12    39 1   
    34    13    17 ar  
    35    13    40 1   
    36    14    15 ar  
    37    14    41 1   
    38    15    16 1   
    39    15    17 ar  
    40    17    18 1   
    41    19    20 2   
    42    21    22 ar  
    43    21    42 1   
    44    24    43 1   
    45    24    44 1   
    46    24    45 1   
    47    25    46 1   
    48    26    27 2   
    49    26    28 2   
@<TRIPOS>SUBSTRUCTURE
     1 891         1 TEMP              0 ****  ****    0 ROOT
