@<TRIPOS>MOLECULE
molecule
   47    49     1     0     0
SMALL
bcc


@<TRIPOS>ATOM
      1 C16          0.0000     0.0000     0.0000 ca         1 891       0.992900
      2 C13          1.3040     0.0010     2.3370 ca         1 891      -0.436400
      3 C11          1.9830     0.0030     3.6310 cc         1 891      -0.014200
      4 C12         -0.1070     0.0010     2.2990 ca         1 891       0.641200
      5 C10          1.2210     0.0030     4.7580 cd         1 891      -0.038100
      6 C1           0.0950     0.0100    -2.4640 c3         1 891       0.271500
      7 C2           0.4670    -1.4250    -2.8410 c3         1 891      -0.103100
      8 C5          -2.0800     2.8840    -4.6190 c3         1 891      -0.230300
      9 N8          -0.8180     0.0030     3.4700 n          1 891      -0.408300
     10 C3          -0.7580     0.6260    -3.5760 c3         1 891      -0.229600
     11 C25          1.3880    -3.3480     8.3500 ca         1 891       0.126900
     12 C24          0.8980    -3.3490     7.0560 ca         1 891      -0.147000
     13 C23          1.0410    -2.2260     6.2610 ca         1 891      -0.146000
     14 C26          2.0170    -2.2220     8.8550 ca         1 891      -0.180000
     15 C27          2.1620    -1.0980     8.0630 ca         1 891       0.142900
     16 F28          2.7750     0.0010     8.5550 f          1 891      -0.123900
     17 C21          1.6750    -1.1000     6.7610 ca         1 891       0.093100
     18 O20          1.8170     0.0050     5.9810 os         1 891      -0.203200
     19 C9          -0.1910     0.0040     4.6610 c          1 891       0.684700
     20 O18         -0.8570     0.0050     5.6820 o          1 891      -0.614500
     21 C14          2.0120     0.0000     1.1300 ca         1 891       0.559200
     22 N15          1.3280     0.0000     0.0000 nb         1 891      -0.819000
     23 N17         -0.7120     0.0010     1.1170 nb         1 891      -0.833000
     24 C22         -2.2820     0.0030     3.4270 c3         1 891       0.084300
     25 N19         -0.6650     0.0060    -1.2120 nu         1 891      -0.891900
     26 S4          -1.0750     2.3720    -3.2000 s6         1 891       1.102000
     27 O6           0.1590     3.0750    -3.2400 o          1 891      -0.604800
     28 O7          -1.8760     2.4440    -2.0270 o          1 891      -0.604800
     29 H11          3.0370     0.2460     3.6890 ha         1 891       0.159000
     30 H1           0.9980     0.5950    -2.3370 h1         1 891       0.099700
     31 H2          -0.4130    -2.0540    -2.7780 hc         1 891       0.047700
     32 H2A          1.2230    -1.7930    -2.1580 hc         1 891       0.047700
     33 H2B          0.8530    -1.4440    -3.8520 hc         1 891       0.047700
     34 H5          -2.3350     3.9330    -4.5220 h1         1 891       0.098367
     35 H5A         -1.5180     2.7330    -5.5330 h1         1 891       0.098367
     36 H5B         -2.9880     2.2940    -4.6510 h1         1 891       0.098367
     37 H3          -1.7000     0.0940    -3.6440 h1         1 891       0.102700
     38 H3A         -0.2320     0.5490    -4.5190 h1         1 891       0.102700
     39 H24          0.4030    -4.2290     6.6650 ha         1 891       0.150000
     40 H23          0.6600    -2.2280     5.2470 ha         1 891       0.148000
     41 H26          2.3960    -2.2230     9.8690 ha         1 891       0.164000
     42 H14          3.0950     0.0000     1.1230 h4         1 891       0.039100
     43 H22         -2.6300    -0.9020     2.9440 h1         1 891       0.065033
     44 H22A        -2.6740     0.0470     4.4360 h1         1 891       0.065033
     45 H22B        -2.6270     0.8650     2.8690 h1         1 891       0.065033
     46 HN19        -1.6640    -0.0420    -1.2340 hn         1 891       0.469800
     47 F29          1.2460    -4.4460     9.1250 f          1 891      -0.136900
@<TRIPOS>BOND
     1     1    22 ar  
     2     1    23 ar  
     3     1    25 1   
     4     2     3 1   
     5     2     4 ar  
     6     2    21 ar  
     7     3     5 2   
     8     4     9 1   
     9     4    23 ar  
    10     5    18 1   
    11     5    19 1   
    12     6     7 1   
    13     6    10 1   
    14     6    25 1   
    15     8    26 1   
    16     9    19 1   
    17     9    24 1   
    18    10    26 1   
    19    47    11 1   
    20    11    12 ar  
    21    11    14 ar  
    22    12    13 ar  
    23    13    17 ar  
    24    14    15 ar  
    25    15    16 1   
    26    15    17 ar  
    27    17    18 1   
    28    19    20 2   
    29    21    22 ar  
    30    26    27 2   
    31    26    28 2   
    32     3    29 1   
    33     6    30 1   
    34     7    31 1   
    35     7    32 1   
    36     7    33 1   
    37     8    34 1   
    38     8    35 1   
    39     8    36 1   
    40    10    37 1   
    41    10    38 1   
    42    12    39 1   
    43    13    40 1   
    44    14    41 1   
    45    21    42 1   
    46    24    43 1   
    47    24    44 1   
    48    24    45 1   
    49    25    46 1   
@<TRIPOS>SUBSTRUCTURE
     1 891         1 TEMP              0 ****  ****    0 ROOT
