@<TRIPOS>MOLECULE
892
   55    58     1     0     0
SMALL
bcc


@<TRIPOS>ATOM
      1 BR22       -0.0580   -2.2970   -0.6530 br        1 892     -0.043600
      2 C13         1.6570   -1.7530   -0.1360 ca        1 892     -0.110900
      3 C14         2.3170   -2.2770    1.0010 ca        1 892      0.221100
      4 O20         1.6510   -3.2270    1.7180 oh        1 892     -0.463100
      5 C15         3.6080   -1.8180    1.3430 ca        1 892     -0.110900
      6 BR21        4.5240   -2.4750    2.8380 br        1 892     -0.043600
      7 C16         4.2230   -0.8440    0.5580 ca        1 892     -0.011500
      8 C12         2.3000   -0.7860   -0.9070 ca        1 892     -0.011500
      9 C11         3.5810   -0.3330   -0.5770 ca        1 892     -0.220600
     10 C03         4.2610    0.7150   -1.3630 c         1 892      0.622900
     11 O19         5.1680    1.4010   -0.8720 o         1 892     -0.519100
     12 C9          3.8280    0.9300   -2.7470 cc        1 892     -0.253400
     13 C8          3.6720    2.1660   -3.3680 cd        1 892      0.174900
     14 C17         3.7980    3.5590   -2.8980 c3        1 892     -0.043200
     15 C18         5.2440    3.9990   -2.8450 c3        1 892     -0.099100
     16 C5          3.5550   -0.0770   -3.7510 ca        1 892      0.021200
     17 C6          3.5520   -1.4720   -3.7990 ca        1 892     -0.117000
     18 C4          3.2330    0.6450   -4.9480 ca        1 892      0.013100
     19 O7          3.2910    2.0220   -4.7090 os        1 892     -0.181200
     20 C3          2.9170    0.0340   -6.1470 ca        1 892      0.025000
     21 C2          2.9270   -1.3720   -6.1740 ca        1 892     -0.455500
     22 C1          3.2400   -2.0930   -5.0000 ca        1 892     -0.024000
     23 S01         2.5050   -2.1780   -7.5480 sy        1 892      1.523200
     24 O01         2.0690   -3.4770   -7.2800 o         1 892     -0.626300
     25 O02         1.7080   -1.4030   -8.3960 o         1 892     -0.626300
     26 N01         4.0430   -2.3150   -8.2750 nh        1 892     -0.700500
     27 C02         4.3370   -2.5890   -9.5810 ca        1 892      0.344600
     28 C01         3.3200   -2.6560  -10.5880 ca        1 892     -0.227000
     29 C04         5.6880   -2.8230   -9.9980 ca        1 892     -0.227000
     30 C07         5.9790   -3.1270  -11.3030 ca        1 892      0.055500
     31 C06         4.9740   -3.2220  -12.3030 ca        1 892     -0.651500
     32 C05         3.6410   -2.9560  -11.8860 ca        1 892      0.055500
     33 S02         5.3270   -3.5100  -13.8050 sy        1 892      1.516200
     34 O05         4.3490   -3.2140  -14.7320 o         1 892     -0.579300
     35 O03         6.6650   -3.4600  -14.1350 o         1 892     -0.579300
     36 N02         5.1050   -5.4550  -13.7600 n4        1 892     -0.780500
     37 H20         2.1890   -3.4770    2.4910 ho        1 892      0.447000
     38 H16         5.2240   -0.4570    0.8220 ha        1 892      0.166500
     39 H12         1.7900   -0.3640   -1.7910 ha        1 892      0.166500
     40 H171        3.3470    3.6240   -1.8690 hc        1 892      0.084200
     41 H172        3.2150    4.2380   -3.5790 hc        1 892      0.084200
     42 H181        5.2950    5.0520   -2.4750 hc        1 892      0.057700
     43 H182        5.7100    3.9550   -3.8580 hc        1 892      0.057700
     44 H183        5.8260    3.3450   -2.1490 hc        1 892      0.057700
     45 H6          3.7790   -2.0630   -2.8970 ha        1 892      0.170000
     46 H3          2.6490    0.6240   -7.0400 ha        1 892      0.179000
     47 H1          3.2100   -3.1980   -5.0390 ha        1 892      0.163000
     48 H01         4.8480   -2.2330   -7.6880 hn        1 892      0.458800
     49 H2          2.2660   -2.4330  -10.3310 ha        1 892      0.183000
     50 H04         6.5060   -2.7530   -9.2610 ha        1 892      0.183000
     51 H07         7.0340   -3.2920  -11.5980 ha        1 892      0.166500
     52 H05         2.8360   -2.9740  -12.6480 ha        1 892      0.166500
     53 H021        5.9760   -5.9130  -14.0140 hn        1 892      0.447467
     54 H022        4.8290   -5.7850  -12.8430 hn        1 892      0.447467
     55 H023        4.3940   -5.7410  -14.4280 hn        1 892      0.447467
@<TRIPOS>BOND
     1    1    2 1
     2    2    3 ar
     3    2    8 ar
     4    3    4 1
     5    3    5 ar
     6    4   37 1
     7    5    6 1
     8    5    7 ar
     9    7    9 ar
    10    7   38 1
    11    8    9 ar
    12    8   39 1
    13    9   10 1
    14   10   11 2
    15   10   12 1
    16   12   13 2
    17   12   16 1
    18   13   14 1
    19   13   19 1
    20   14   15 1
    21   14   40 1
    22   14   41 1
    23   15   42 1
    24   15   43 1
    25   15   44 1
    26   16   17 ar
    27   16   18 ar
    28   17   22 ar
    29   17   45 1
    30   18   19 1
    31   18   20 ar
    32   20   21 ar
    33   20   46 1
    34   21   22 ar
    35   21   23 1
    36   22   47 1
    37   23   24 2
    38   23   25 2
    39   23   26 1
    40   26   27 1
    41   26   48 1
    42   27   28 ar
    43   27   29 ar
    44   28   32 ar
    45   28   49 1
    46   29   30 ar
    47   29   50 1
    48   30   31 ar
    49   30   51 1
    50   31   32 ar
    51   31   33 1
    52   32   52 1
    53   33   34 2
    54   33   35 2
    55   33   36 1
    56   36   53 1
    57   36   54 1
    58   36   55 1
@<TRIPOS>SUBSTRUCTURE
     1 892         1 TEMP              0 ****  ****    0 ROOT
