@<TRIPOS>MOLECULE
molecule
   44    45     1     0     0
SMALL
bcc


@<TRIPOS>ATOM
      1 C1           0.0000     0.0000     0.0000 ca         1 893      -0.192000
      2 C2           1.3870     0.0000     0.0000 ca         1 893       0.104100
      3 C3           2.0800     0.0000     1.2020 ca         1 893      -0.104300
      4 C4           1.3890     0.0110     2.3970 ca         1 893      -0.113000
      5 C5           0.0030     0.0160     2.3980 ca         1 893       0.082100
      6 C6          -0.6910     0.0110     1.1960 ca         1 893      -0.192000
      7 C9           3.5870    -0.0060     1.2020 c3         1 893       0.092300
      8 N1           4.0800     1.3510     0.9530 ns         1 893      -0.544900
      9 C8           5.4070     1.5880     0.9090 c          1 893       0.598600
     10 C14          5.9070     2.9610     0.6570 ca         1 893       0.430800
     11 N16          5.0380     3.9500     0.4760 nb         1 893      -0.767000
     12 C17          5.4350     5.1870     0.2490 ca         1 893       0.664600
     13 C18          6.8040     5.4980     0.1850 ca         1 893      -0.142300
     14 C19          7.7410     4.4770     0.3770 ca         1 893      -0.033000
     15 C20          7.2780     3.1950     0.6130 ca         1 893      -0.235300
     16 O22         -0.6780     0.0280     3.5750 os         1 893      -0.323900
     17 C23         -2.0690     0.0320     3.2480 c3         1 893       0.086700
     18 O27          2.0670    -0.0110    -1.1770 os         1 893      -0.267900
     19 C28          1.0890    -0.0200    -2.2190 c3         1 893       0.093700
     20 C34          7.2330     6.8420    -0.0620 cg         1 893       0.246800
     21 N35          7.5800     7.9090    -0.2400 n1         1 893      -0.348800
     22 O36          4.5140     6.1640     0.0690 os         1 893      -0.380100
     23 C37          3.2300     5.5480     0.1820 c3         1 893       0.092400
     24 C7           2.1400     6.6050    -0.0110 c3         1 893      -0.096100
     25 O1           6.1920     0.6770     1.0750 o          1 893      -0.598100
     26 H1          -0.6100     0.3620    -0.8190 ha         1 893       0.145000
     27 H4           1.7460    -0.1630     3.4060 ha         1 893       0.162000
     28 H6          -1.7520     0.1820     1.0550 ha         1 893       0.145000
     29 H91          3.5140    -0.5910     0.2940 h1         1 893       0.075700
     30 H92          4.1920    -0.5930     1.8840 h1         1 893       0.075700
     31 HN1          3.2330     1.8710     1.0730 hn         1 893       0.343500
     32 H19          8.7380     4.6330    -0.0160 ha         1 893       0.161000
     33 H20          7.9070     2.3580     0.8940 ha         1 893       0.178000
     34 H231        -2.6890     0.5200     3.9900 h1         1 893       0.058700
     35 H232        -1.9430     0.8670     2.5700 h1         1 893       0.058700
     36 H233        -2.0720    -0.8170     2.5750 h1         1 893       0.058700
     37 H281         0.1650    -0.5630    -2.0620 h1         1 893       0.040700
     38 H282         0.6630     0.9530    -2.4330 h1         1 893       0.040700
     39 H283         1.4890    -0.3130    -3.1820 h1         1 893       0.040700
     40 H371         3.3820     4.6190    -0.3520 h1         1 893       0.065200
     41 H372         2.9660     4.8080     0.9270 h1         1 893       0.065200
     42 H71          2.6430     7.5490     0.1590 hc         1 893       0.043367
     43 H72          1.3990     6.7740    -0.7840 hc         1 893       0.043367
     44 H73          1.3620     6.7420     0.7300 hc         1 893       0.043367
@<TRIPOS>BOND
     1     1     2 ar  
     2     1     6 ar  
     3     1    26 1   
     4     2     3 ar  
     5     2    18 1   
     6     3     4 ar  
     7     3     7 1   
     8     4     5 ar  
     9     4    27 1   
    10     5     6 ar  
    11     5    16 1   
    12     6    28 1   
    13     7     8 1   
    14     7    29 1   
    15     7    30 1   
    16     8     9 1   
    17     8    31 1   
    18     9    10 1   
    19     9    25 2   
    20    10    11 ar  
    21    10    15 ar  
    22    11    12 ar  
    23    12    13 ar  
    24    12    22 1   
    25    13    14 ar  
    26    13    20 1   
    27    14    15 ar  
    28    14    32 1   
    29    15    33 1   
    30    16    17 1   
    31    17    34 1   
    32    17    35 1   
    33    17    36 1   
    34    18    19 1   
    35    19    37 1   
    36    19    38 1   
    37    19    39 1   
    38    20    21 3   
    39    22    23 1   
    40    23    24 1   
    41    23    40 1   
    42    23    41 1   
    43    24    42 1   
    44    24    43 1   
    45    24    44 1   
@<TRIPOS>SUBSTRUCTURE
     1 893         1 TEMP              0 ****  ****    0 ROOT
