@<TRIPOS>MOLECULE
molecule
   52    54     1     0     0
SMALL
bcc


@<TRIPOS>ATOM
      1 Cl1          0.0000     0.0000     0.0000 cl         1 894      -0.052400
      2 C1           1.7140     0.0000     0.0000 cc         1 894       0.009300
      3 C2           2.5580     0.0000     1.0880 cd         1 894      -0.139000
      4 C3           3.9300    -0.0010     0.7010 cd         1 894      -0.132000
      5 C4           4.0550    -0.0010    -0.6510 cc         1 894      -0.089400
      6 C9           5.3330    -0.0020    -1.4550 c3         1 894       0.025900
      7 S1           7.3710    -1.4060    -2.6700 s6         1 894       1.250900
      8 O2           7.1290    -0.8050    -3.9670 o          1 894      -0.603800
      9 O1           8.3900    -0.8740    -1.7850 o          1 894      -0.603800
     10 N1           7.6290    -3.0840    -2.8480 n7         1 894      -0.877100
     11 C12          6.9710    -3.7990    -3.9560 c3         1 894       0.165500
     12 C13          7.8950    -3.9270    -5.1620 c3         1 894      -0.114400
     13 C14          8.6650    -5.2120    -4.9100 c3         1 894       0.103000
     14 C15          6.7670    -5.2220    -3.4970 c          1 894       0.719500
     15 O3           5.9120    -5.5830    -2.7010 o          1 894      -0.581500
     16 N2           7.7550    -5.9950    -4.1050 n          1 894      -0.498800
     17 C16          7.9850    -7.4020    -3.8590 c3         1 894       0.054700
     18 C17          8.2150    -7.6990    -2.3960 c3         1 894      -0.106100
     19 C18          6.7310    -8.0790    -4.3500 c          1 894       0.664100
     20 O4           5.7900    -7.3910    -4.7540 o          1 894      -0.569100
     21 N3           6.7230    -9.4710    -4.3180 n          1 894      -0.507800
     22 C19          7.8230   -10.3170    -3.8450 c3         1 894       0.068500
     23 C20          8.0430   -11.4800    -4.8040 c3         1 894       0.116400
     24 O5           6.8240   -12.2030    -5.0000 os         1 894      -0.407600
     25 C22          5.8200   -11.3680    -5.5820 c3         1 894       0.116400
     26 C23          5.5020   -10.2040    -4.6530 c3         1 894       0.068500
     27 S6           2.5740    -0.0010    -1.4810 ss         1 894      -0.009800
     28 C6           5.8360    -1.4060    -1.7720 c3         1 894      -0.225600
     29 H2           2.2200     0.0000     2.1170 ha         1 894       0.162000
     30 H3           4.7620    -0.0010     1.3940 ha         1 894       0.161000
     31 H9C1         5.1590     0.5240    -2.3860 hc         1 894       0.065200
     32 H9C2         6.0970     0.5230    -0.8950 hc         1 894       0.065200
     33 H6C1         5.9760    -1.9440    -0.8430 h1         1 894       0.108200
     34 H6C2         5.0870    -1.9190    -2.3630 h1         1 894       0.108200
     35 H1           8.3360    -3.5420    -2.3070 hn         1 894       0.455800
     36 H12          6.0300    -3.3370    -4.2280 h1         1 894       0.101700
     37 H131         7.3160    -4.0060    -6.0740 hc         1 894       0.073700
     38 H132         8.5730    -3.0830    -5.2080 hc         1 894       0.073700
     39 H141         8.8770    -5.7170    -5.8440 h1         1 894       0.045700
     40 H142         9.5770    -5.0070    -4.3620 h1         1 894       0.045700
     41 H16          8.8350    -7.7410    -4.4400 h1         1 894       0.073700
     42 H171         8.4790    -6.7840    -1.8790 hc         1 894       0.052700
     43 H172         9.0200    -8.4160    -2.2950 hc         1 894       0.052700
     44 H173         7.3100    -8.1090    -1.9650 hc         1 894       0.052700
     45 H191         8.7290    -9.7260    -3.7870 h1         1 894       0.059700
     46 H192         7.5790   -10.7050    -2.8640 h1         1 894       0.059700
     47 H231         4.8080    -9.5340    -5.1460 h1         1 894       0.059700
     48 H232         5.0550   -10.5860    -3.7440 h1         1 894       0.059700
     49 H201         8.7910   -12.1470    -4.3900 h1         1 894       0.054950
     50 H202         8.3870   -11.0960    -5.7570 h1         1 894       0.054950
     51 H221         4.9220   -11.9510    -5.7450 h1         1 894       0.054950
     52 H222         6.1800   -10.9830    -6.5280 h1         1 894       0.054950
@<TRIPOS>BOND
     1    23    50 1   
     2    25    51 1   
     3    25    52 1   
     4     5     6 1   
     5     7     8 2   
     6     7     9 2   
     7     7    10 1   
     8    10    11 1   
     9    11    12 1   
    10    12    13 1   
    11    11    14 1   
    12    14    15 2   
    13    13    16 1   
    14    14    16 1   
    15    16    17 1   
    16    17    18 1   
    17    17    19 1   
    18    19    20 2   
    19    19    21 1   
    20    21    22 1   
    21    22    23 1   
    22    23    24 1   
    23    24    25 1   
    24    21    26 1   
    25    25    26 1   
    26     2    27 1   
    27     5    27 1   
    28     6    28 1   
    29     7    28 1   
    30     3    29 1   
    31     4    30 1   
    32     6    31 1   
    33     6    32 1   
    34    28    33 1   
    35    28    34 1   
    36    10    35 1   
    37    11    36 1   
    38    12    37 1   
    39    12    38 1   
    40    13    39 1   
    41    13    40 1   
    42    17    41 1   
    43     1     2 1   
    44     2     3 2   
    45     3     4 1   
    46     4     5 2   
    47    18    42 1   
    48    18    43 1   
    49    18    44 1   
    50    22    45 1   
    51    22    46 1   
    52    26    47 1   
    53    26    48 1   
    54    23    49 1   
@<TRIPOS>SUBSTRUCTURE
     1 894         1 TEMP              0 ****  ****    0 ROOT
