@<TRIPOS>MOLECULE
molecule
   50    52     1     0     0
SMALL
bcc


@<TRIPOS>ATOM
      1 Cl1          0.0000     0.0000     0.0000 cl         1 895      -0.046400
      2 C1           1.7140     0.0000     0.0000 cc         1 895       0.020300
      3 C2           2.5580     0.0000     1.0890 cd         1 895      -0.147000
      4 C3           3.9300    -0.0020     0.7020 cd         1 895      -0.082000
      5 C4           4.0300    -0.0020    -0.6340 cc         1 895      -0.094900
      6 C9           5.2750    -0.0050    -1.4200 ce         1 895       0.067800
      7 S1           7.8370    -0.0380    -2.0090 sy         1 895       1.302800
      8 O2           9.0700     0.0530    -1.2470 o          1 895      -0.606300
      9 O1           7.6390    -1.1470    -2.9260 o          1 895      -0.606300
     10 N1           7.6580     1.4170    -2.9160 n7         1 895      -0.879100
     11 C12          8.1110     2.6770    -2.3020 c3         1 895       0.155500
     12 C13          8.4520     3.7200    -3.3600 c3         1 895      -0.100400
     13 C14          7.1350     4.4280    -3.6270 c3         1 895       0.105000
     14 C15          6.9220     3.2620    -1.5800 c          1 895       0.713500
     15 O3           6.4820     2.8530    -0.5150 o          1 895      -0.588500
     16 N2           6.4210     4.2880    -2.3790 n          1 895      -0.496800
     17 C16          5.2200     5.0480    -2.1070 c3         1 895       0.055700
     18 C17          4.0070     4.1640    -1.9380 c3         1 895      -0.107100
     19 C18          5.5240     5.7860    -0.8290 c          1 895       0.663100
     20 O4           6.5920     5.5770    -0.2470 o          1 895      -0.567100
     21 N3           4.5550     6.6830    -0.3830 n          1 895      -0.507800
     22 C19          3.2780     6.9550    -1.0490 c3         1 895       0.068500
     23 C20          3.0110     8.4540    -1.0830 c3         1 895       0.115900
     24 O5           3.0840     9.0050     0.2360 os         1 895      -0.407600
     25 C22          4.3870     8.8260     0.7940 c3         1 895       0.115900
     26 C23          4.7100     7.3430     0.9130 c3         1 895       0.068500
     27 S6           2.5750    -0.0020    -1.4810 ss         1 895      -0.000800
     28 C6           6.5070    -0.0280    -0.8980 cf         1 895      -0.347100
     29 H2           2.2550    -0.4830     2.0100 ha         1 895       0.166000
     30 H3           4.6600    -0.5320     1.3000 ha         1 895       0.169000
     31 H1           7.4830     1.3740    -3.9000 hn         1 895       0.446800
     32 H12          8.9410     2.5180    -1.6240 h1         1 895       0.112700
     33 H131         9.1850     4.4190    -2.9780 hc         1 895       0.069200
     34 H132         8.8110     3.2380    -4.2620 hc         1 895       0.069200
     35 H141         7.3040     5.4730    -3.8530 h1         1 895       0.043700
     36 H142         6.5960     3.9390    -4.4300 h1         1 895       0.043700
     37 H16          5.0470     5.7580    -2.9070 h1         1 895       0.071700
     38 H171         3.1420     4.6510    -2.3740 hc         1 895       0.052700
     39 H172         4.1770     3.2180    -2.4370 hc         1 895       0.052700
     40 H173         3.8300     3.9910    -0.8840 hc         1 895       0.052700
     41 H191         3.3160     6.5760    -2.0630 h1         1 895       0.059700
     42 H192         2.4800     6.4630    -0.5070 h1         1 895       0.059700
     43 H231         4.0360     6.8880     1.6280 h1         1 895       0.059700
     44 H232         5.7320     7.2270     1.2520 h1         1 895       0.059700
     45 H201         3.7520     8.9340    -1.7110 h1         1 895       0.054950
     46 H202         2.0220     8.6310    -1.4890 h1         1 895       0.054950
     47 H221         5.1190     9.3010     0.1520 h1         1 895       0.054950
     48 H222         4.4190     9.2790     1.7780 h1         1 895       0.054950
     49 H6           6.6610    -0.0470     0.1750 h4         1 895       0.198000
     50 H9           5.1790     0.0070    -2.4990 ha         1 895       0.127000
@<TRIPOS>BOND
     1     1     2 1
     2     2     3 2
     3     3     4 1
     4     4     5 2
     5     5     6 1
     6     7     8 2
     7     7     9 2
     8     7    10 1
     9    10    11 1
    10    11    12 1
    11    12    13 1
    12    11    14 1
    13    14    15 2
    14    13    16 1
    15    14    16 1
    16    16    17 1
    17    17    18 1
    18    17    19 1
    19    19    20 2
    20    19    21 1
    21    21    22 1
    22    22    23 1
    23    23    24 1
    24    24    25 1
    25    21    26 1
    26    25    26 1
    27     2    27 1
    28     5    27 1
    29     6    28 2
    30     7    28 1
    31     3    29 1
    32     4    30 1
    33    28    49 1
    34     6    50 1
    35    10    31 1
    36    11    32 1
    37    12    33 1
    38    12    34 1
    39    13    35 1
    40    13    36 1
    41    17    37 1
    42    18    38 1
    43    18    39 1
    44    18    40 1
    45    22    41 1
    46    22    42 1
    47    26    43 1
    48    26    44 1
    49    23    45 1
    50    23    46 1
    51    25    47 1
    52    25    48 1
@<TRIPOS>SUBSTRUCTURE
     1 895         1 TEMP              0 ****  ****    0 ROOT
