@<TRIPOS>MOLECULE
895
   51    52     1     0     0
SMALL
bcc


@<TRIPOS>ATOM
      1 CL1         1.7760    1.2550    3.1170 cl        1 895      0.049600
      2 C1          2.9820    0.7500    2.0900 cc        1 895      0.008300
      3 C2          4.1900    0.1760    2.5340 cd        1 895     -0.177000
      4 C3          5.0250   -0.1540    1.4620 cd        1 895     -0.024000
      5 C4          4.4370    0.1690    0.2130 cc        1 895     -0.252900
      6 C9          4.9900   -0.0170   -1.0540 ce        1 895      0.320800
      7 S1          6.9200   -0.8170   -2.6400 s4        1 895      1.696100
      8 O2          8.1650   -1.3750   -2.6050 o         1 895     -0.455900
      9 O1          6.1770   -0.8350   -3.7800 o         1 895     -0.455900
     10 N1          7.9160    1.2910   -3.2410 n3        1 895     -0.984800
     11 C12         7.6190    2.4790   -2.4570 c3        1 895      0.058500
     12 C13         8.5110    3.7130   -2.7080 c3        1 895     -0.116400
     13 C14         7.5430    4.9020   -2.8500 c3        1 895      0.071000
     14 C15         6.1710    2.9970   -2.6940 c         1 895      0.712500
     15 O3          5.1840    2.2460   -2.6770 o         1 895     -0.648500
     16 N2          6.1940    4.3570   -2.9810 n         1 895     -0.421800
     17 C16         5.0700    5.2430   -2.7530 c3        1 895      0.051700
     18 C17         3.8010    4.8020   -3.4810 c3        1 895     -0.107100
     19 C18         4.7310    5.3940   -1.2440 c         1 895      0.632100
     20 O4          5.0600    4.4930   -0.4400 o         1 895     -0.636100
     21 N3          4.0870    6.5240   -0.7930 n         1 895     -0.457800
     22 C19         3.5200    7.5430   -1.6470 c3        1 895      0.053000
     23 C20         3.6180    8.9520   -1.0350 c3        1 895      0.113400
     24 O5          3.1270    8.9790    0.2970 os        1 895     -0.397600
     25 C22         3.8170    8.0650    1.1410 c3        1 895      0.113400
     26 C23         3.7220    6.6280    0.6100 c3        1 895      0.053000
     27 S6          2.9150    0.8600    0.4480 ss        1 895      0.257200
     28 C6          6.2560   -0.5200   -1.3120 c2        1 895     -0.830300
     29 H2          4.4380    0.0120    3.5890 ha        1 895      0.194000
     30 H3          6.0110   -0.6150    1.5780 ha        1 895      0.174000
     31 H1          8.9090    1.1150   -3.2250 hn        1 895      0.403800
     32 H12         7.6830    2.1910   -1.3650 h1        1 895      0.104700
     33 H131        9.2060    3.8770   -1.8480 hc        1 895      0.077700
     34 H132        9.1270    3.6070   -3.6350 hc        1 895      0.077700
     35 H141        7.6160    5.5780   -1.9530 h1        1 895      0.071200
     36 H142        7.7750    5.5020   -3.7720 h1        1 895      0.071200
     37 H16         5.4000    6.2470   -3.1620 h1        1 895      0.084700
     38 H171        3.0000    5.5620   -3.3110 hc        1 895      0.065033
     39 H172        3.9900    4.7210   -4.5790 hc        1 895      0.065033
     40 H173        3.4500    3.8100   -3.1060 hc        1 895      0.065033
     41 H191        4.0360    7.5650   -2.6440 h1        1 895      0.062200
     42 H192        2.4290    7.3050   -1.8190 h1        1 895      0.062200
     43 H231        4.3990    5.9680    1.2210 h1        1 895      0.062200
     44 H232        2.6620    6.2640    0.7330 h1        1 895      0.062200
     45 H201        4.6780    9.3200   -1.0580 h1        1 895      0.065450
     46 H202        2.9500    9.6560   -1.5970 h1        1 895      0.065450
     47 H221        4.8880    8.3820    1.2480 h1        1 895      0.065450
     48 H222        3.2890    8.1420    2.1280 h1        1 895      0.065450
     49 H6          6.8450   -0.7330   -0.3860 h4        1 895      0.228000
     50 H9          4.3580    0.2720   -1.9290 ha        1 895      0.178000
     51 H121        7.6280    1.4220   -4.1990 hn        1 895      0.403800
@<TRIPOS>BOND
     1    1    2 1   
     2    2    3 2   
     3    2   27 1   
     4    3    4 1   
     5    3   29 1   
     6    4    5 2   
     7    4   30 1   
     8    5    6 1   
     9    5   27 1   
    10    6   28 2   
    11    6   50 1   
    12    7    8 1   
    13    7    9 1   
    14    7   28 1   
    15   10   11 1   
    16   10   31 1   
    17   10   51 1   
    18   11   12 1   
    19   11   14 1   
    20   11   32 1   
    21   12   13 1   
    22   12   33 1   
    23   12   34 1   
    24   13   16 1   
    25   13   35 1   
    26   13   36 1   
    27   14   15 2   
    28   14   16 1   
    29   16   17 1   
    30   17   18 1   
    31   17   19 1   
    32   17   37 1   
    33   18   38 1   
    34   18   39 1   
    35   18   40 1   
    36   19   20 2   
    37   19   21 1   
    38   21   22 1   
    39   21   26 1   
    40   22   23 1   
    41   22   41 1   
    42   22   42 1   
    43   23   24 1   
    44   23   45 1   
    45   23   46 1   
    46   24   25 1   
    47   25   26 1   
    48   25   47 1   
    49   25   48 1   
    50   26   43 1   
    51   26   44 1   
    52   28   49 1   
@<TRIPOS>SUBSTRUCTURE
     1 895         1 TEMP              0 ****  ****    0 ROOT
