@<TRIPOS>MOLECULE
molecule
   55    56     1     0     0
SMALL
bcc


@<TRIPOS>ATOM
      1 O2           0.0000     0.0000     0.0000 o          1 896      -0.591100
      2 C21          1.2380     0.0000     0.0000 c          1 896       0.684700
      3 N2           2.0280     0.0000     1.1650 n          1 896      -0.496800
      4 C6           1.4420     0.0000     2.4980 c3         1 896       0.105000
      5 C5           1.2250    -1.3910     2.9900 c3         1 896      -0.116100
      6 C22          3.4880     0.0010     1.1140 c3         1 896       0.063700
      7 C24          4.0090    -1.2560     1.7950 c3         1 896      -0.109600
      8 C23          4.0040     1.2620     1.7900 c3         1 896      -0.109600
      9 C17          1.8970     0.0170    -1.2970 ca         1 896      -0.108600
     10 C16          3.1530    -0.5710    -1.4490 ca         1 896      -0.212000
     11 C14          3.7770    -0.5510    -2.6910 ca         1 896       0.118100
     12 C15          3.1620     0.0510    -3.7830 ca         1 896      -0.130000
     13 C19          1.9060     0.6390    -3.6310 ca         1 896      -0.062300
     14 C20          1.2410     1.2860    -4.7990 c3         1 896      -0.048800
     15 C18          1.2740     0.6220    -2.3880 ca         1 896      -0.095000
     16 O3           5.0100    -1.1290    -2.8400 os         1 896      -0.329900
     17 C1           5.8600    -1.1290    -1.6980 c3         1 896       0.127400
     18 C7           7.3170    -1.0740    -2.1520 c3         1 896       0.237500
     19 C8           8.2660    -1.1090    -0.9610 c3         1 896      -0.115100
     20 N3           7.5490     0.1460    -2.9000 nu         1 896      -0.801600
     21 C9           8.6020     0.3120    -3.7800 ca         1 896       0.238600
     22 C10          8.7780     1.5170    -4.4790 ca         1 896      -0.334300
     23 C11          9.8500     1.6350    -5.3500 ca         1 896       0.436700
     24 N4          10.7520     0.6540    -5.5750 nb         1 896      -0.703000
     25 C12         10.5700    -0.4990    -4.8940 ca         1 896       0.436700
     26 C13          9.5310    -0.7170    -4.0030 ca         1 896      -0.334300
     27 H6C1         0.4910     0.5180     2.4680 h1         1 896       0.054700
     28 H6C2         2.1070     0.5180     3.1780 h1         1 896       0.054700
     29 H22          3.8060    -0.0010     0.0790 h1         1 896       0.093700
     30 H5C1         0.2530    -1.4590     3.4630 hc         1 896       0.041367
     31 H5C2         1.2700    -2.0800     2.1550 hc         1 896       0.041367
     32 H5C3         1.9960    -1.6430     3.7080 hc         1 896       0.041367
     33 H241         3.8730    -1.1700     2.8670 hc         1 896       0.043200
     34 H242         3.4640    -2.1180     1.4300 hc         1 896       0.043200
     35 H243         5.0630    -1.3760     1.5750 hc         1 896       0.043200
     36 H231         4.9640     1.5320     1.3670 hc         1 896       0.043200
     37 H232         3.3000     2.0700     1.6330 hc         1 896       0.043200
     38 H233         4.1160     1.0820     2.8530 hc         1 896       0.043200
     39 H16          3.6390    -1.0430    -0.6030 ha         1 896       0.164000
     40 H18          0.2990     1.0790    -2.2700 ha         1 896       0.158000
     41 H15          3.6550     0.0620    -4.7480 ha         1 896       0.151000
     42 H201         0.8120     0.5240    -5.4380 hc         1 896       0.049700
     43 H202         1.9710     1.8580    -5.3590 hc         1 896       0.049700
     44 H203         0.4570     1.9460    -4.4470 hc         1 896       0.049700
     45 H1C1         5.6940    -2.0330    -1.1240 h1         1 896       0.043700
     46 H1C2         5.6400    -0.2650    -1.0830 h1         1 896       0.043700
     47 H7           7.5200    -1.9250    -2.7910 h1         1 896       0.071700
     48 H8C1         8.2180    -0.1640    -0.4340 hc         1 896       0.047367
     49 H8C2         9.2770    -1.2770    -1.3110 hc         1 896       0.047367
     50 H8C3         7.9770    -1.9110    -0.2920 hc         1 896       0.047367
     51 H3           6.9140     0.9080    -2.7720 hn         1 896       0.435800
     52 H10          8.0870     2.3400    -4.3410 ha         1 896       0.137500
     53 H13          9.4380    -1.6650    -3.4870 ha         1 896       0.137500
     54 H11          9.9720     2.5700    -5.8830 h4         1 896       0.014600
     55 H12         11.2780    -1.3020    -5.0560 h4         1 896       0.014600
@<TRIPOS>BOND
     1     1     2 2   
     2     2     3 1   
     3     3     4 1   
     4     4     5 1   
     5     3     6 1   
     6     6     7 1   
     7     6     8 1   
     8     2     9 1   
     9     9    10 ar  
    10    10    11 ar  
    11    11    12 ar  
    12    12    13 ar  
    13    13    14 1   
    14     9    15 ar  
    15    13    15 ar  
    16    11    16 1   
    17    16    17 1   
    18    17    18 1   
    19    18    19 1   
    20    18    20 1   
    21    20    21 1   
    22    21    22 ar  
    23    22    23 ar  
    24    23    24 ar  
    25    24    25 ar  
    26    21    26 ar  
    27    25    26 ar  
    28     4    27 1   
    29     4    28 1   
    30     6    29 1   
    31     5    30 1   
    32     5    31 1   
    33     5    32 1   
    34     7    33 1   
    35     7    34 1   
    36     7    35 1   
    37     8    36 1   
    38     8    37 1   
    39     8    38 1   
    40    10    39 1   
    41    15    40 1   
    42    12    41 1   
    43    14    42 1   
    44    14    43 1   
    45    14    44 1   
    46    17    45 1   
    47    17    46 1   
    48    18    47 1   
    49    19    48 1   
    50    19    49 1   
    51    19    50 1   
    52    20    51 1   
    53    22    52 1   
    54    26    53 1   
    55    23    54 1   
    56    25    55 1   
@<TRIPOS>SUBSTRUCTURE
     1 896         1 TEMP              0 ****  ****    0 ROOT
