@<TRIPOS>MOLECULE
molecule
   71    72     1     0     0
SMALL
bcc


@<TRIPOS>ATOM
      1 C8           0.0000     0.0000     0.0000 c3         1 897      -0.115100
      2 C7           1.5230     0.0000     0.0000 c3         1 897       0.237500
      3 N3           1.9890    -1.1790    -0.7040 nu         1 897      -0.804600
      4 C9           2.0250    -1.2810    -2.0830 ca         1 897       0.236600
      5 C10          2.4880    -2.4470    -2.7110 ca         1 897      -0.332800
      6 C11          2.5030    -2.5000    -4.0960 ca         1 897       0.435700
      7 N4           2.0950    -1.4900    -4.8960 nb         1 897      -0.702000
      8 C12          1.6510    -0.3740    -4.2750 ca         1 897       0.435700
      9 C13          1.5960    -0.2220    -2.8990 ca         1 897      -0.332800
     10 C1           2.0760     0.0000     1.4230 c3         1 897       0.131400
     11 O3           3.5020     0.0330     1.3760 os         1 897      -0.327900
     12 C14          4.1690    -0.5720     2.3960 ca         1 897       0.131100
     13 C15          5.4250    -1.1360     2.1690 ca         1 897      -0.141000
     14 C19          6.1090    -1.7570     3.2140 ca         1 897      -0.048300
     15 C20          7.4510    -2.3610     2.9720 c3         1 897      -0.050800
     16 C18          5.5370    -1.8150     4.4850 ca         1 897      -0.128000
     17 C16          3.5980    -0.6290     3.6670 ca         1 897      -0.191000
     18 C17          4.2900    -1.2490     4.6960 ca         1 897      -0.095600
     19 C21          3.6860    -1.3100     6.0380 c          1 897       0.682700
     20 O2           3.9530    -0.3800     6.7970 o          1 897      -0.575100
     21 N2           2.8750    -2.4100     6.3660 n          1 897      -0.503800
     22 C22          2.2340    -2.5960     7.6730 c3         1 897       0.119700
     23 C23          1.2850    -1.4340     7.9320 c3         1 897      -0.109100
     24 C24          3.3120    -2.6900     8.7420 c3         1 897      -0.109100
     25 C6           2.6330    -3.4420     5.3880 c3         1 897       0.115000
     26 C5           1.3940    -3.1000     4.5720 c3         1 897      -0.196400
     27 C4           1.0740    -4.1570     3.5300 c          1 897       0.673100
     28 O1           1.7480    -5.1710     3.3720 o          1 897      -0.589100
     29 N1          -0.0580    -3.8260     2.7990 ns         1 897      -0.596900
     30 C3          -0.5790    -4.6610     1.7420 c3         1 897       0.116400
     31 C25         -1.8300    -4.0020     1.1470 c3         1 897      -0.100767
     32 C26          0.4900    -4.8210     0.6560 c3         1 897      -0.100767
     33 C2          -0.9470    -6.0340     2.3150 c3         1 897      -0.100767
     34 H8C1        -0.3610     0.9340    -0.4140 hc         1 897       0.046700
     35 H8C2        -0.3610    -0.1080     1.0160 hc         1 897       0.046700
     36 H8C3        -0.3610    -0.8250    -0.6020 hc         1 897       0.046700
     37 H7           1.8760     0.8840    -0.5170 h1         1 897       0.072700
     38 H3           2.3030    -1.9600    -0.1630 hn         1 897       0.437800
     39 H1C1         1.7120     0.8720     1.9520 h1         1 897       0.045200
     40 H1C2         1.7530    -0.8970     1.9370 h1         1 897       0.045200
     41 H10          2.8290    -3.2910    -2.1240 ha         1 897       0.138000
     42 H13          1.2300     0.6990    -2.4610 ha         1 897       0.138000
     43 H11          2.8640    -3.4070    -4.5660 h4         1 897       0.014600
     44 H12          1.3170     0.4510    -4.8920 h4         1 897       0.014600
     45 H15          5.8680    -1.0930     1.1810 ha         1 897       0.150000
     46 H16          2.6230    -0.1920     3.8480 ha         1 897       0.138000
     47 H201         7.9830    -2.4480     3.9110 hc         1 897       0.049700
     48 H202         8.0140    -1.7290     2.2950 hc         1 897       0.049700
     49 H203         7.3310    -3.3440     2.5320 hc         1 897       0.049700
     50 H18          6.0640    -2.2960     5.3010 ha         1 897       0.145000
     51 H22          1.6670    -3.5190     7.6610 h1         1 897       0.054700
     52 H6C1         2.4810    -4.3880     5.8930 h1         1 897       0.068200
     53 H6C2         3.4890    -3.5200     4.7270 h1         1 897       0.068200
     54 H231         0.5060    -1.7490     8.6150 hc         1 897       0.046367
     55 H232         0.8390    -1.1170     6.9970 hc         1 897       0.046367
     56 H233         1.8350    -0.6090     8.3670 hc         1 897       0.046367
     57 H241         4.0820    -3.3810     8.4190 hc         1 897       0.046367
     58 H242         3.7500    -1.7120     8.9010 hc         1 897       0.046367
     59 H243         2.8740    -3.0440     9.6670 hc         1 897       0.046367
     60 H5C1         1.5550    -2.1520     4.0720 hc         1 897       0.062700
     61 H5C2         0.5490    -3.0030     5.2430 hc         1 897       0.062700
     62 H1          -0.5350    -2.9730     3.0150 hn         1 897       0.311500
     63 H251        -1.5720    -3.0260     0.7540 hc         1 897       0.044478
     64 H252        -2.5830    -3.8940     1.9180 hc         1 897       0.044478
     65 H253        -2.2180    -4.6220     0.3470 hc         1 897       0.044478
     66 H261         1.0730    -3.9100     0.5860 hc         1 897       0.044478
     67 H262         0.0110    -5.0170    -0.2960 hc         1 897       0.044478
     68 H263         1.1420    -5.6480     0.9090 hc         1 897       0.044478
     69 H2C1        -1.4780    -5.9050     3.2500 hc         1 897       0.044478
     70 H2C2        -0.0440    -6.6070     2.4890 hc         1 897       0.044478
     71 H2C3        -1.5790    -6.5620     1.6110 hc         1 897       0.044478
@<TRIPOS>BOND
     1     3     4 1
     2     4     5 ar
     3     5     6 ar
     4     6     7 ar
     5     7     8 ar
     6     4     9 ar
     7     8     9 ar
     8     2    10 1
     9    10    11 1
    10    11    12 1
    11    12    13 ar
    12    13    14 ar
    13    14    15 1
    14    14    16 ar
    15    12    17 ar
    16    16    18 ar
    17    17    18 ar
    18    18    19 1
    19    19    20 2
    20    19    21 1
    21    21    22 1
    22    22    23 1
    23    22    24 1
    24    21    25 1
    25    25    26 1
    26    26    27 1
    27    27    28 2
    28    27    29 1
    29    29    30 1
    30    30    31 1
    31    30    32 1
    32    30    33 1
    33     1    34 1
    34     1    35 1
    35     1    36 1
    36     2    37 1
    37     3    38 1
    38    10    39 1
    39    10    40 1
    40     5    41 1
    41     9    42 1
    42     6    43 1
    43     8    44 1
    44    13    45 1
    45    17    46 1
    46    15    47 1
    47    15    48 1
    48    15    49 1
    49    16    50 1
    50    22    51 1
    51    25    52 1
    52    25    53 1
    53    23    54 1
    54    23    55 1
    55    23    56 1
    56    24    57 1
    57    24    58 1
    58    24    59 1
    59    26    60 1
    60    26    61 1
    61    29    62 1
    62    31    63 1
    63    31    64 1
    64    31    65 1
    65    32    66 1
    66    32    67 1
    67    32    68 1
    68    33    69 1
    69     1     2 1
    70     2     3 1
    71    33    70 1
    72    33    71 1
@<TRIPOS>SUBSTRUCTURE
     1 897         1 TEMP              0 ****  ****    0 ROOT
