@<TRIPOS>MOLECULE
898
   55    56     1     0     0
SMALL
bcc


@<TRIPOS>ATOM
      1 CL1         3.1060    4.4450    2.7440 cl        1 898      0.085600
      2 C1          4.3360    3.6030    2.0230 cc        1 898      0.042300
      3 C2          5.5530    3.2950    2.6750 cd        1 898     -0.177000
      4 C3          6.4160    2.5830    1.8440 cd        1 898     -0.009000
      5 S2          4.2980    3.0300    0.4760 ss        1 898      0.226200
      6 C4          5.8470    2.3510    0.5560 cc        1 898     -0.258900
      7 C5          6.5080    1.6840   -0.4630 ce        1 898      0.296800
      8 C6          5.9970    1.4500   -1.7370 c2        1 898     -0.865300
      9 S1          6.6780    0.8290   -2.9320 s4        1 898      1.703100
     10 O2          6.0650    0.9130   -4.1450 o         1 898     -0.455900
     11 O1          7.9750    0.4320   -2.8050 o         1 898     -0.455900
     12 N1          5.9070   -1.4470   -2.6350 n3        1 898     -0.983800
     13 C12         5.5410   -2.0540   -3.9060 c3        1 898      0.063500
     14 C13         6.7060   -2.5980   -4.7540 c3        1 898     -0.104400
     15 C14         6.1800   -3.9100   -5.3660 c3        1 898      0.081000
     16 C50         4.5820   -3.2680   -3.7560 c         1 898      0.680500
     17 O3          3.6360   -3.2810   -2.9590 o         1 898     -0.594500
     18 N2          4.9660   -4.2810   -4.6390 n         1 898     -0.371000
     19 C15         4.3290   -5.5150   -4.8090 ca        1 898      0.092600
     20 C21         4.5980   -6.3590   -5.9360 ca        1 898      0.096900
     21 F1          5.4730   -5.9960   -6.9030 f         1 898     -0.120900
     22 C22         3.3850   -5.9880   -3.8670 ca        1 898     -0.138000
     23 C26         2.7490   -7.2140   -4.0240 ca        1 898     -0.083000
     24 C27         3.0350   -8.0340   -5.1190 ca        1 898     -0.175300
     25 C24         3.9610   -7.6030   -6.0690 ca        1 898     -0.128000
     26 C28         2.3930   -9.3870   -5.2310 c3        1 898      0.199800
     27 C8          3.4550  -10.4770   -5.3090 c3        1 898     -0.127100
     28 N3          1.4430   -9.4190   -6.4260 n4        1 898     -0.685400
     29 C9          0.9760  -10.7960   -6.7250 c3        1 898      0.081600
     30 C7          0.2840   -8.5180   -6.1970 c3        1 898      0.081600
     31 H2          5.7820    3.5880    3.7080 ha        1 898      0.207000
     32 H3          7.4160    2.2430    2.1360 ha        1 898      0.188000
     33 H51C        7.5380    1.3210   -0.2380 ha        1 898      0.164000
     34 H61C        4.9530    1.8270   -1.8720 h4        1 898      0.229000
     35 H1          5.1070   -1.4630   -2.0180 hn        1 898      0.403300
     36 H12         4.9770   -1.2690   -4.4990 h1        1 898      0.129700
     37 H131        7.6220   -2.7980   -4.1440 hc        1 898      0.088700
     38 H132        6.9770   -1.8750   -5.5620 hc        1 898      0.088700
     39 H141        6.9430   -4.7320   -5.2790 h1        1 898      0.085200
     40 H142        5.9370   -3.7590   -6.4550 h1        1 898      0.085200
     41 H22         3.1330   -5.3800   -2.9790 ha        1 898      0.191000
     42 H24         4.2270   -8.2310   -6.9350 ha        1 898      0.155000
     43 H26         2.0270   -7.5380   -3.2570 ha        1 898      0.155000
     44 H28         1.7430   -9.5780   -4.3230 hx        1 898      0.107700
     45 H81C        4.0240  -10.4400   -6.2700 hc        1 898      0.080033
     46 H82C        4.1790  -10.3130   -4.4700 hc        1 898      0.080033
     47 H83C        3.0050  -11.4920   -5.1840 hc        1 898      0.080033
     48 H91C        0.1800  -10.7530   -7.5180 hx        1 898      0.106033
     49 H92C        0.5530  -11.2610   -5.7960 hx        1 898      0.106033
     50 H93C        1.8360  -11.4150   -7.0990 hx        1 898      0.106033
     51 H71C       -0.3140   -8.4340   -7.1440 hx        1 898      0.106033
     52 H72C       -0.3650   -8.9410   -5.3830 hx        1 898      0.106033
     53 H73C        0.6560   -7.5030   -5.8910 hx        1 898      0.106033
     54 H121        6.6590   -1.9590   -2.2010 hn        1 898      0.403300
     55 H31         1.9670   -9.0690   -7.2400 hn        1 898      0.446800
@<TRIPOS>BOND
     1    1    2 1   
     2    2    3 2   
     3    2    5 1   
     4    3    4 1   
     5    3   31 1   
     6    4    6 2   
     7    4   32 1   
     8    5    6 1   
     9    6    7 1   
    10    7    8 2   
    11    7   33 1   
    12    8    9 1   
    13    8   34 1   
    14    9   10 1   
    15    9   11 1   
    16   12   13 1   
    17   12   35 1   
    18   12   54 1   
    19   13   14 1   
    20   13   16 1   
    21   13   36 1   
    22   14   15 1   
    23   14   37 1   
    24   14   38 1   
    25   15   18 1   
    26   15   39 1   
    27   15   40 1   
    28   16   17 2   
    29   16   18 1   
    30   18   19 1   
    31   19   20 ar  
    32   19   22 ar  
    33   20   21 1   
    34   20   25 ar  
    35   22   23 ar  
    36   22   41 1   
    37   23   24 ar  
    38   23   43 1   
    39   24   25 ar  
    40   24   26 1   
    41   25   42 1   
    42   26   27 1   
    43   26   28 1   
    44   26   44 1   
    45   27   45 1   
    46   27   46 1   
    47   27   47 1   
    48   28   29 1   
    49   28   30 1   
    50   28   55 1   
    51   29   48 1   
    52   29   49 1   
    53   29   50 1   
    54   30   51 1   
    55   30   52 1   
    56   30   53 1   
@<TRIPOS>SUBSTRUCTURE
     1 898         1 TEMP              0 ****  ****    0 ROOT
