@<TRIPOS>MOLECULE
molecule
   53    55     1     0     0
SMALL
bcc


@<TRIPOS>ATOM
      1 Cl1          0.0000     0.0000     0.0000 cl         1 898      -0.052400
      2 C1           1.7360     0.0000     0.0000 cc         1 898       0.067300
      3 C2           2.5060     0.0000     1.0940 cd         1 898      -0.161000
      4 C3           3.8630    -0.0000     0.8530 cd         1 898      -0.121000
      5 S2           2.7470    -0.0080    -1.4390 ss         1 898      -0.036800
      6 C4           4.2040    -0.0000    -0.4540 cc         1 898      -0.049900
      7 C5           5.5800    -0.0010    -0.9730 ce         1 898       0.084800
      8 C6           5.7960    -0.0000    -2.2850 cf         1 898      -0.400100
      9 S1           7.4450     0.0000    -2.9070 sy         1 898       1.411800
     10 O2           7.5020     1.0210    -3.8930 o          1 898      -0.637800
     11 O1           8.3010    -0.0340    -1.7740 o          1 898      -0.637800
     12 N1           7.6680    -1.4340    -3.7050 n7         1 898      -0.897100
     13 C12          6.8960    -1.7270    -4.9140 c3         1 898       0.159500
     14 C13          7.7510    -2.5340    -5.9200 c3         1 898      -0.102400
     15 C14          7.3610    -3.9860    -5.5690 c3         1 898       0.099000
     16 C50          5.7360    -2.6430    -4.5940 c          1 898       0.689500
     17 O3           4.7000    -2.2950    -4.0690 o          1 898      -0.608500
     18 N2           6.0210    -3.9000    -4.9760 n          1 898      -0.402000
     19 C15          5.1510    -4.9870    -4.8260 ca         1 898       0.015600
     20 C21          4.2520    -5.3050    -5.8390 ca         1 898       0.136900
     21 F1           4.2150    -4.5650    -6.9680 f          1 898      -0.132900
     22 C22          5.1890    -5.7550    -3.6710 ca         1 898      -0.096000
     23 C26          4.3290    -6.8270    -3.5260 ca         1 898      -0.139000
     24 C27          3.4330    -7.1380    -4.5310 ca         1 898      -0.050300
     25 C24          3.3950    -6.3800    -5.6870 ca         1 898      -0.141000
     26 C28          2.4980    -8.3080    -4.3690 c3         1 898       0.214800
     27 C8           2.9760    -9.4680    -5.2450 c3         1 898      -0.088100
     28 N3           1.1430    -7.9130    -4.7760 n3         1 898      -0.731600
     29 C9           0.2210    -9.0540    -4.7150 c3         1 898       0.149100
     30 C7           0.6520    -6.7960    -3.9580 c3         1 898       0.149100
     31 H2           2.0930     0.0000     2.0960 ha         1 898       0.159000
     32 H3           4.5980     0.0020     1.6490 ha         1 898       0.155000
     33 H51C         6.4180    -0.0010    -0.2860 ha         1 898       0.160000
     34 H61C         4.9590     0.0000    -2.9720 h4         1 898       0.186000
     35 H1           8.3520    -2.0870    -3.3770 hn         1 898       0.456800
     36 H12          6.5380    -0.8130    -5.3730 h1         1 898       0.108700
     37 H131         7.4730    -2.2960    -6.9400 hc         1 898       0.073200
     38 H132         8.8070    -2.3670    -5.7490 hc         1 898       0.073200
     39 H141         8.0610    -4.3980    -4.8520 h1         1 898       0.053200
     40 H142         7.3340    -4.5930    -6.4660 h1         1 898       0.053200
     41 H22          5.8910    -5.5130    -2.8820 ha         1 898       0.144000
     42 H24          2.6920    -6.6270    -6.4730 ha         1 898       0.168000
     43 H26          4.3570    -7.4250    -2.6230 ha         1 898       0.138000
     44 H28          2.4870    -8.6200    -3.3320 h1         1 898       0.032700
     45 H81C         2.6170    -9.3270    -6.2570 hc         1 898       0.044367
     46 H82C         2.5900   -10.4000    -4.8510 hc         1 898       0.044367
     47 H83C         4.0590    -9.4970    -5.2460 hc         1 898       0.044367
     48 H91C        -0.8010    -8.6960    -4.7470 h1         1 898       0.035033
     49 H92C         0.3830    -9.6010    -3.7940 h1         1 898       0.035033
     50 H93C         0.4000    -9.7090    -5.5600 h1         1 898       0.035033
     51 H71C         0.9960    -6.9170    -2.9380 h1         1 898       0.035033
     52 H72C        -0.4310    -6.7850    -3.9750 h1         1 898       0.035033
     53 H73C         1.0290    -5.8630    -4.3570 h1         1 898       0.035033
@<TRIPOS>BOND
     1     1     2 1   
     2     2     3 2   
     3     2     5 1   
     4     3     4 1   
     5     4     6 2   
     6     5     6 1   
     7     6     7 1   
     8     7     8 2   
     9     8     9 1   
    10     9    10 2   
    11     9    11 2   
    12     9    12 1   
    13    12    13 1   
    14    13    14 1   
    15    13    16 1   
    16    14    15 1   
    17    15    18 1   
    18    16    17 2   
    19    16    18 1   
    20    18    19 1   
    21    19    20 ar  
    22    19    22 ar  
    23    20    21 1   
    24    20    25 ar  
    25    22    23 ar  
    26    23    24 ar  
    27    24    25 ar  
    28    24    26 1   
    29    26    27 1   
    30    26    28 1   
    31    28    29 1   
    32    28    30 1   
    33     3    31 1   
    34     4    32 1   
    35     7    33 1   
    36     8    34 1   
    37    12    35 1   
    38    13    36 1   
    39    14    37 1   
    40    14    38 1   
    41    15    39 1   
    42    15    40 1   
    43    22    41 1   
    44    25    42 1   
    45    23    43 1   
    46    26    44 1   
    47    27    45 1   
    48    27    46 1   
    49    27    47 1   
    50    29    48 1   
    51    29    49 1   
    52    29    50 1   
    53    30    51 1   
    54    30    52 1   
    55    30    53 1   
@<TRIPOS>SUBSTRUCTURE
     1 898         1 TEMP              0 ****  ****    0 ROOT
