@<TRIPOS>MOLECULE
89A
   48    49     1     0     0
SMALL
bcc


@<TRIPOS>ATOM
      1 CAD          0.0000     0.0000     0.0000 c3         1 89A       0.003900
      2 CBB          2.4480    -2.2930    -4.1830 c          1 89A       0.301100
      3 CBC          2.2800    -2.5930    -2.7150 c3         1 89A      -0.042300
      4 CBD          1.2720    -3.7290    -2.5380 c3         1 89A      -0.018100
      5 CBE          2.0330    -1.2320    -0.7090 c          1 89A       0.552100
      6 CBF          1.5310     0.0000     0.0000 c3         1 89A       0.107100
      7 NBK          1.7920    -1.3950    -2.0250 ns         1 89A      -0.219900
      8 OBN          2.6530    -2.0740    -0.0960 o          1 89A      -0.588100
      9 C1           3.3510     0.2240     3.9760 c3         1 89A       0.348900
     10 C2           4.0510    -0.0710     2.6410 c3         1 89A      -0.029300
     11 N2           5.4240     0.4360     2.6830 ns         1 89A      -0.404900
     12 C3           3.2810     0.6270     1.5130 c3         1 89A       0.127100
     13 O3           2.0070     0.0000     1.3480 os         1 89A      -0.338600
     14 C4           3.0820     2.1030     1.8750 c3         1 89A       0.088100
     15 O4           4.3440     2.7730     1.8670 oh         1 89A      -0.524800
     16 C5           2.4630     2.1840     3.2800 c3         1 89A       0.100100
     17 O5           3.4380     1.6480     4.2080 os         1 89A      -0.341600
     18 C6           1.3210     1.1430     3.3520 c3         1 89A       0.080400
     19 O6           1.9490    -0.0640     3.8230 os         1 89A      -0.350600
     20 C7           6.4050    -0.3200     3.2150 c          1 89A       0.644100
     21 O7           6.1510    -1.4200     3.6570 o          1 89A      -0.644100
     22 C8           7.8180     0.2020     3.2580 c3         1 89A      -0.052100
     23 HAD1        -0.3610    -0.8850     0.5100 hc         1 89A       0.021367
     24 HAD2        -0.3610     0.0010    -1.0210 hc         1 89A       0.021367
     25 HAD3        -0.3610     0.8840     0.5120 hc         1 89A       0.021367
     26 HBF          1.8920     0.8840    -0.5110 h1         1 89A       0.022700
     27 HBC          3.2350    -2.8880    -2.2960 h1         1 89A       0.089700
     28 HBJ1         3.3020    -2.6240    -5.6810 hn         1 89A       0.277133
     29 HBJ2         3.4860    -3.4900    -4.2520 hn         1 89A       0.277133
     30 HBD1         0.7830    -3.6320    -1.5770 hc         1 89A       0.033033
     31 HBD2         0.5310    -3.6800    -3.3270 hc         1 89A       0.033033
     32 HBD3         1.7880    -4.6810    -2.5870 hc         1 89A       0.033033
     33 HBK          1.2970    -0.6910    -2.5350 hn         1 89A       0.206500
     34 H1           3.7880    -0.3410     4.7910 h2         1 89A       0.075700
     35 H2           4.0630    -1.1400     2.4650 h1         1 89A       0.074700
     36 HA           5.0380     0.2360     3.5840 hn         1 89A       0.266500
     37 H3           3.8520     0.3580     0.6330 h1         1 89A       0.023700
     38 H4           2.4180     2.5680     1.1560 h1         1 89A       0.011700
     39 HB           4.5600     2.2010     1.1500 ho         1 89A       0.393000
     40 H5           1.9110     3.0740     3.0040 h1         1 89A       0.087700
     41 H61C         0.8890     1.0010     2.3690 h1         1 89A       0.065200
     42 H62C         0.9610     2.0570     3.8080 h1         1 89A       0.065200
     43 H81C         8.0660     0.6540     2.3060 hc         1 89A       0.032033
     44 H82C         8.4990    -0.6160     3.4580 hc         1 89A       0.032033
     45 H83C         7.9050     0.9440     4.0430 hc         1 89A       0.032033
     46 NBJ          2.8890    -3.2520    -5.0200 nz         1 89A       0.136600
     47 HBJ3         2.2440    -3.9400    -5.3540 hn         1 89A       0.277133
     48 OBM          2.1850    -1.1890    -4.6100 o          1 89A      -0.406100
@<TRIPOS>BOND
     1     1     6 1   
     2     1    23 1   
     3     1    24 1   
     4     1    25 1   
     5     2     3 1   
     6     2    46 1   
     7     2    48 2   
     8     3     4 1   
     9     3     7 1   
    10     3    27 1   
    11     4    30 1   
    12     4    31 1   
    13     4    32 1   
    14     5     6 1   
    15     5     7 1   
    16     5     8 2   
    17     6    13 1   
    18     6    26 1   
    19     7    33 1   
    20     9    10 1   
    21     9    17 1   
    22     9    19 1   
    23     9    34 1   
    24    10    11 1   
    25    10    12 1   
    26    10    35 1   
    27    11    20 1   
    28    11    36 1   
    29    12    13 1   
    30    12    14 1   
    31    12    37 1   
    32    14    15 1   
    33    14    16 1   
    34    14    38 1   
    35    15    39 1   
    36    16    17 1   
    37    16    18 1   
    38    16    40 1   
    39    18    19 1   
    40    18    41 1   
    41    18    42 1   
    42    20    21 2   
    43    20    22 1   
    44    22    43 1   
    45    22    44 1   
    46    22    45 1   
    47    28    46 1   
    48    29    46 1   
    49    46    47 1   
@<TRIPOS>SUBSTRUCTURE
     1 89A         1 TEMP              0 ****  ****    0 ROOT
