@<TRIPOS>MOLECULE
molecule
   37    39     1     0     0
SMALL
bcc


@<TRIPOS>ATOM
      1 C21          0.0000     0.0000     0.0000 ca         1 89C       0.115100
      2 C10          0.8400     0.8750     5.2470 cc         1 89C      -0.306200
      3 C11          1.5180     0.7170     6.4630 c          1 89C       0.743800
      4 C15          0.4400    -2.5320     7.6450 ca         1 89C      -0.148000
      5 C14          0.5670    -1.4010     6.8480 ca         1 89C       0.173100
      6 O02          2.0730    -0.0010    -1.1780 os         1 89C      -0.315900
      7 C03          1.3920     0.0000     0.0000 ca         1 89C       0.088100
      8 C04          2.0850     0.0000     1.2000 ca         1 89C      -0.169000
      9 C05          1.3950     0.0010     2.3980 ca         1 89C      -0.159000
     10 C06          0.0070     0.0000     2.4010 ca         1 89C       0.164600
     11 N07         -0.6900     0.0010     3.6150 nh         1 89C      -0.616800
     12 C08         -2.1490     0.1350     3.6220 c3         1 89C       0.231100
     13 C09         -0.0040    -0.1240     4.8030 cd         1 89C       0.261800
     14 O13          1.3740    -0.3840     7.2170 os         1 89C      -0.310200
     15 C16         -0.3800    -3.5670     7.2480 ca         1 89C      -0.078000
     16 C17         -1.1000    -3.4850     6.0660 ca         1 89C      -0.159000
     17 C18         -0.9810    -2.3770     5.2540 ca         1 89C      -0.067000
     18 C19         -0.1470    -1.3270     5.6400 ca         1 89C      -0.171800
     19 C20         -0.6910     0.0060     1.2000 ca         1 89C      -0.192000
     20 O22         -0.6810     0.0000    -1.1770 oh         1 89C      -0.503100
     21 H1           0.8750     1.8250     4.7280 ha         1 89C       0.182000
     22 H2           0.9980    -2.6070     8.5710 ha         1 89C       0.155000
     23 H3           3.9140    -0.0010    -2.1050 h1         1 89C       0.041033
     24 H4           3.8340    -0.8850    -0.5750 h1         1 89C       0.041033
     25 H5           3.8340     0.8840    -0.5750 h1         1 89C       0.041033
     26 H6           3.1680     0.0000     1.2000 ha         1 89C       0.144000
     27 H7           1.9380     0.0010     3.3350 ha         1 89C       0.147000
     28 H8          -2.4290     1.0610     3.1350 h1         1 89C       0.044033
     29 H9          -2.5900    -0.7000     3.0910 h1         1 89C       0.044033
     30 H10         -2.5060     0.1420     4.6440 h1         1 89C       0.044033
     31 H11         -0.4810    -4.4420     7.8770 ha         1 89C       0.141000
     32 H12         -1.7400    -4.3060     5.7670 ha         1 89C       0.139000
     33 H13         -1.5440    -2.3140     4.3310 ha         1 89C       0.145000
     34 H14         -1.7740     0.0060     1.2030 ha         1 89C       0.145000
     35 H15         -1.0180    -0.8640    -1.3450 ho         1 89C       0.417000
     36 O12          2.2600     1.6040     6.8470 o          1 89C      -0.578500
     37 C01          3.5000    -0.0010    -1.1040 c3         1 89C       0.126700
@<TRIPOS>BOND
     1    36     3 2   
     2    14     3 1   
     3    14     5 1   
     4     3     2 1   
     5     4     5 ar  
     6     4    15 ar  
     7     5    18 ar  
     8     2    13 2   
     9    15    16 ar  
    10    18    13 1   
    11    18    17 ar  
    12    13    11 1   
    13    16    17 ar  
    14    11    12 1   
    15    11    10 1   
    16     9    10 ar  
    17     9     8 ar  
    18    10    19 ar  
    19     8     7 ar  
    20    19     1 ar  
    21     7     1 ar  
    22     7     6 1   
    23     1    20 1   
    24     6    37 1   
    25     2    21 1   
    26     4    22 1   
    27    37    23 1   
    28    37    24 1   
    29    37    25 1   
    30     8    26 1   
    31     9    27 1   
    32    12    28 1   
    33    12    29 1   
    34    12    30 1   
    35    15    31 1   
    36    16    32 1   
    37    17    33 1   
    38    19    34 1   
    39    20    35 1   
@<TRIPOS>SUBSTRUCTURE
     1 89C         1 TEMP              0 ****  ****    0 ROOT
