@<TRIPOS>MOLECULE
89C
   37    39     1     0     0
SMALL
bcc


@<TRIPOS>ATOM
      1 C21          0.0000     0.0000     0.0000 ca         1 89C       0.132100
      2 C10          0.8400     0.8750     5.2470 cc         1 89C      -0.285200
      3 C11          1.5180     0.7170     6.4630 c          1 89C       0.791800
      4 C15          0.4400    -2.5320     7.6450 ca         1 89C      -0.132000
      5 C14          0.5670    -1.4010     6.8480 ca         1 89C       0.178100
      6 O02          2.0730    -0.0010    -1.1780 os         1 89C      -0.293900
      7 C03          1.3920     0.0000     0.0000 ca         1 89C       0.086100
      8 C04          2.0850     0.0000     1.2000 ca         1 89C      -0.147000
      9 C05          1.3950     0.0010     2.3980 ca         1 89C      -0.148000
     10 C06          0.0070     0.0000     2.4010 ca         1 89C       0.030600
     11 N07         -0.6900     0.0010     3.6150 nh         1 89C      -0.227800
     12 C08         -2.1490     0.1350     3.6220 c3         1 89C       0.200100
     13 C09         -0.0040    -0.1240     4.8030 cd         1 89C       0.139800
     14 O13          1.3740    -0.3840     7.2170 os         1 89C      -0.276200
     15 C16         -0.3800    -3.5670     7.2480 ca         1 89C      -0.045000
     16 C17         -1.1000    -3.4850     6.0660 ca         1 89C      -0.134000
     17 C18         -0.9810    -2.3770     5.2540 ca         1 89C      -0.043000
     18 C19         -0.1470    -1.3270     5.6400 ca         1 89C      -0.178800
     19 C20         -0.6910     0.0060     1.2000 ca         1 89C      -0.186000
     20 O22         -0.6810     0.0000    -1.1770 oh         1 89C      -0.485100
     21 H1           0.8750     1.8250     4.7280 ha         1 89C       0.154000
     22 H2           0.9980    -2.6070     8.5710 ha         1 89C       0.124000
     23 H3           3.9140    -0.0010    -2.1050 h1         1 89C      -0.002967
     24 H4           3.8340    -0.8850    -0.5750 h1         1 89C      -0.002967
     25 H5           3.8340     0.8840    -0.5750 h1         1 89C      -0.002967
     26 H6           3.1680     0.0000     1.2000 ha         1 89C       0.123000
     27 H7           1.9380     0.0010     3.3350 ha         1 89C       0.125000
     28 H8          -2.4290     1.0610     3.1350 h1         1 89C       0.012367
     29 H9          -2.5900    -0.7000     3.0910 h1         1 89C       0.012367
     30 H10         -2.5060     0.1420     4.6440 h1         1 89C       0.012367
     31 H11         -0.4810    -4.4420     7.8770 ha         1 89C       0.107000
     32 H12         -1.7400    -4.3060     5.7670 ha         1 89C       0.110000
     33 H13         -1.5440    -2.3140     4.3310 ha         1 89C       0.114000
     34 H14         -1.7740     0.0060     1.2030 ha         1 89C       0.125000
     35 H15         -1.0180    -0.8640    -1.3450 ho         1 89C       0.399000
     36 O12          2.2600     1.6040     6.8470 o          1 89C      -0.625500
     37 C01          3.5000    -0.0010    -1.1040 c3         1 89C       0.240700
@<TRIPOS>BOND
     1     1     7 ar  
     2     1    19 ar  
     3     1    20 1   
     4     2     3 1   
     5     2    13 2   
     6     2    21 1   
     7     3    14 1   
     8     3    36 2   
     9     4     5 ar  
    10     4    15 ar  
    11     4    22 1   
    12     5    14 1   
    13     5    18 ar  
    14     6     7 1   
    15     6    37 1   
    16     7     8 ar  
    17     8     9 ar  
    18     8    26 1   
    19     9    10 ar  
    20     9    27 1   
    21    10    11 1   
    22    10    19 ar  
    23    11    12 1   
    24    11    13 1   
    25    12    28 1   
    26    12    29 1   
    27    12    30 1   
    28    13    18 1   
    29    15    16 ar  
    30    15    31 1   
    31    16    17 ar  
    32    16    32 1   
    33    17    18 ar  
    34    17    33 1   
    35    19    34 1   
    36    20    35 1   
    37    23    37 1   
    38    24    37 1   
    39    25    37 1   
@<TRIPOS>SUBSTRUCTURE
     1 89C         1 TEMP              0 ****  ****    0 ROOT
