@<TRIPOS>MOLECULE
molecule
   48    51     1     0     0
SMALL
bcc


@<TRIPOS>ATOM
      1 C7           0.0000     0.0000     0.0000 ca         1 89F       0.001900
      2 C6           2.2030    -1.3890    -1.8780 c3         1 89F       0.223800
      3 C10          1.3660     0.0000     0.0000 ca         1 89F      -0.049300
      4 C9           1.1420    -3.0480    -3.2750 ca         1 89F      -0.096000
      5 C4          -1.1840    -3.2070    -3.7920 ca         1 89F      -0.147000
      6 C2           0.9300    -1.8970    -2.4990 ca         1 89F      -0.042300
      7 N1           3.2440    -1.3830    -2.9150 n3         1 89F      -0.726600
      8 N2           5.3850    -0.2560    -4.4150 n3         1 89F      -0.734600
      9 C1          -0.3420    -1.4000    -2.3990 ca         1 89F       0.014900
     10 C3          -1.3950    -2.0780    -3.0430 ca         1 89F      -0.090000
     11 C5           6.4260    -0.2490    -5.4510 c3         1 89F       0.153100
     12 C8          -1.2190    -5.5910    -5.4940 c3         1 89F      -0.020000
     13 C11          5.6390    -1.3080    -3.4210 c3         1 89F       0.163300
     14 C12          0.1110    -3.6990    -3.9180 ca         1 89F       0.038900
     15 C13         -0.7250    -0.0400     1.1850 ca         1 89F      -0.078000
     16 C14          2.9910    -0.3310    -3.9090 c3         1 89F       0.156800
     17 C15         -0.0450    -0.0600     2.3900 ca         1 89F      -0.138000
     18 C16          2.0460     0.0000     1.2120 ca         1 89F      -0.133000
     19 C17          4.5790    -1.2300    -2.3190 c3         1 89F       0.156800
     20 C18          4.0500    -0.4100    -5.0110 c3         1 89F       0.163300
     21 C19          1.3370    -0.0320     2.3990 ca         1 89F      -0.109000
     22 C20          2.1460    -0.0250    -1.2710 c3         1 89F      -0.088100
     23 S1           0.4280    -5.1380    -4.8840 ss         1 89F      -0.251000
     24 S2          -0.8260     0.0590    -1.5500 ss         1 89F      -0.214800
     25 H1           2.4970    -2.0870    -1.1030 h1         1 89F       0.073700
     26 H2           2.1490    -3.4340    -3.3760 ha         1 89F       0.162000
     27 H3          -2.0110    -3.7020    -4.2870 ha         1 89F       0.135000
     28 H6          -2.4030    -1.6950    -2.9460 ha         1 89F       0.141000
     29 H7           6.4230    -1.1990    -5.9730 h1         1 89F       0.032367
     30 H8           7.3940    -0.0950    -4.9900 h1         1 89F       0.032367
     31 H9           6.2300     0.5500    -6.1560 h1         1 89F       0.032367
     32 H10         -1.1430    -6.4780    -6.1120 h1         1 89F       0.065033
     33 H11         -1.8720    -5.7920    -4.6540 h1         1 89F       0.065033
     34 H12         -1.6240    -4.7760    -6.0800 h1         1 89F       0.065033
     35 H13          5.5880    -2.2770    -3.9020 h1         1 89F       0.041950
     36 H14          6.6210    -1.1640    -2.9870 h1         1 89F       0.041950
     37 H15         -1.8070    -0.0610     1.1650 ha         1 89F       0.145000
     38 H16          2.0090    -0.4750    -4.3430 h1         1 89F       0.045950
     39 H17          3.0420     0.6380    -3.4290 h1         1 89F       0.045950
     40 H18         -0.5940    -0.0850     3.3230 ha         1 89F       0.134000
     41 H19          3.1290     0.0220     1.2280 ha         1 89F       0.133000
     42 H20          4.6440    -0.2690    -1.8240 h1         1 89F       0.045950
     43 H21          4.7460    -2.0240    -1.6020 h1         1 89F       0.045950
     44 H22          3.9850    -1.3710    -5.5060 h1         1 89F       0.041950
     45 H23          3.8820     0.3840    -5.7290 h1         1 89F       0.041950
     46 H24          1.8690    -0.0480     3.3420 ha         1 89F       0.131000
     47 H25          1.6630     0.6400    -1.9770 hc         1 89F       0.073200
     48 H26          3.1590     0.2920    -1.0520 hc         1 89F       0.073200
@<TRIPOS>BOND
     1    21    17 ar  
     2    21    18 ar  
     3    17    15 ar  
     4    18     3 ar  
     5    11     8 1   
     6     8    20 1   
     7     8    13 1   
     8    20    16 1   
     9    16     7 1   
    10    15     1 ar  
    11     3     1 ar  
    12     3    22 1   
    13     1    24 1   
    14    22     2 1   
    15    13    19 1   
    16    19     7 1   
    17     7     2 1   
    18     2     6 1   
    19    24     9 1   
    20     6     9 ar  
    21     6     4 ar  
    22     9    10 ar  
    23     4    14 ar  
    24    10     5 ar  
    25    14     5 ar  
    26    14    23 1   
    27    23    12 1   
    28     2    25 1   
    29     4    26 1   
    30     5    27 1   
    31    10    28 1   
    32    11    29 1   
    33    11    30 1   
    34    11    31 1   
    35    12    32 1   
    36    12    33 1   
    37    12    34 1   
    38    13    35 1   
    39    13    36 1   
    40    15    37 1   
    41    16    38 1   
    42    16    39 1   
    43    17    40 1   
    44    18    41 1   
    45    19    42 1   
    46    19    43 1   
    47    20    44 1   
    48    20    45 1   
    49    21    46 1   
    50    22    47 1   
    51    22    48 1   
@<TRIPOS>SUBSTRUCTURE
     1 89F         1 TEMP              0 ****  ****    0 ROOT
