@<TRIPOS>MOLECULE
molecule
   39    41     1     0     0
SMALL
bcc


@<TRIPOS>ATOM
      1 C4           0.0000     0.0000     0.0000 ca         1 89G      -0.119500
      2 C5           3.9920    -3.5040     2.0090 ca         1 89G      -0.079000
      3 C6           6.1060    -2.3750     1.9640 ca         1 89G      -0.063000
      4 C7           1.3760     0.0100     2.4020 ca         1 89G      -0.137500
      5 C8           1.3810     0.0000     0.0000 ca         1 89G      -0.137500
      6 C10          5.4620    -1.1810     1.6440 ca         1 89G      -0.139900
      7 C13          7.0330     1.8380    -0.0290 cc         1 89G      -0.342200
      8 C15          6.3000     0.6940     0.1280 cc         1 89G       0.080500
      9 C1          -0.6930     0.0040     1.1960 ca         1 89G      -0.129000
     10 C2           5.3700    -3.5290     2.1400 ca         1 89G      -0.168000
     11 C3          -0.0050     0.0100     2.3960 ca         1 89G      -0.119500
     12 C9           3.3430    -2.3240     1.6960 ca         1 89G      -0.212000
     13 C11          2.0730     0.0000     1.2030 ca         1 89G       0.097100
     14 C12          4.0700    -1.1590     1.5130 ca         1 89G       0.170100
     15 C14          6.2480     0.0590     1.4450 cc         1 89G       0.445200
     16 C16          7.7150     2.3720     1.0750 c          1 89G       0.685700
     17 C18          5.7310     0.8390    -2.1720 c3         1 89G       0.123700
     18 N19          6.9040     0.5930     2.4500 nd         1 89G      -0.409300
     19 N20          7.6450     1.7670     2.2750 n          1 89G      -0.214800
     20 O21          8.3770     3.3890     0.9460 o          1 89G      -0.652500
     21 O22          3.4320     0.0000     1.2060 os         1 89G      -0.241200
     22 H1          -0.5410    -0.0020    -0.9390 ha         1 89G       0.136000
     23 H2           3.4200    -4.4130     2.1500 ha         1 89G       0.134000
     24 H3           7.1840    -2.3980     2.0680 ha         1 89G       0.144000
     25 H4           1.9140     0.0120     3.3430 ha         1 89G       0.146000
     26 H5           1.9240    -0.0060    -0.9380 ha         1 89G       0.146000
     27 H6           7.0880     2.3260    -0.9950 ha         1 89G       0.171000
     28 H7           8.0560     3.3680     3.5580 h1         1 89G       0.056033
     29 H8           8.1460     1.7670     4.3070 h1         1 89G       0.056033
     30 H9           9.4320     2.3080     3.2200 h1         1 89G       0.056033
     31 H10         -1.7770     0.0040     1.1930 ha         1 89G       0.134000
     32 H11          5.8710    -4.4570     2.3870 ha         1 89G       0.136000
     33 H12         -0.5510     0.0150     3.3320 ha         1 89G       0.136000
     34 H13          2.2640    -2.3110     1.5950 ha         1 89G       0.149000
     35 H14          6.7660     0.8580    -2.4900 h1         1 89G       0.048700
     36 H15          5.3710     1.8540    -2.0520 h1         1 89G       0.048700
     37 H16          5.1330     0.3310    -2.9190 h1         1 89G       0.048700
     38 O23          5.6300     0.1580    -0.9200 os         1 89G      -0.303900
     39 C17          8.3670     2.3400     3.4140 c3         1 89G       0.120300
@<TRIPOS>BOND
     1     9    11 ar  
     2     9     1 ar  
     3    11     4 ar  
     4     1     5 ar  
     5     4    13 ar  
     6     5    13 ar  
     7    13    21 1   
     8    12    14 ar  
     9    12     2 ar  
    10    21    14 1   
    11    14     6 ar  
    12     2    10 ar  
    13    17    38 1   
    14    38     8 1   
    15    10     3 ar  
    16     6     3 ar  
    17     6    15 1   
    18     8    15 1   
    19     8     7 2   
    20    15    18 2   
    21     7    16 1   
    22    18    19 1   
    23    16    19 1   
    24    16    20 2   
    25    19    39 1   
    26     1    22 1   
    27     2    23 1   
    28     3    24 1   
    29     4    25 1   
    30     5    26 1   
    31     7    27 1   
    32    39    28 1   
    33    39    29 1   
    34    39    30 1   
    35     9    31 1   
    36    10    32 1   
    37    11    33 1   
    38    12    34 1   
    39    17    35 1   
    40    17    36 1   
    41    17    37 1   
@<TRIPOS>SUBSTRUCTURE
     1 89G         1 TEMP              0 ****  ****    0 ROOT
