@<TRIPOS>MOLECULE
89G
   39    41     1     0     0
SMALL
bcc


@<TRIPOS>ATOM
      1 C4           0.0000     0.0000     0.0000 ca         1 89G      -0.086500
      2 C5           3.9920    -3.5040     2.0090 ca         1 89G      -0.047000
      3 C6           6.1060    -2.3750     1.9640 ca         1 89G      -0.032000
      4 C7           1.3760     0.0100     2.4020 ca         1 89G      -0.119000
      5 C8           1.3810     0.0000     0.0000 ca         1 89G      -0.119000
      6 C10          5.4620    -1.1810     1.6440 ca         1 89G      -0.158900
      7 C13          7.0330     1.8380    -0.0290 cc         1 89G      -0.339200
      8 C15          6.3000     0.6940     0.1280 cd         1 89G       0.088500
      9 C1          -0.6930     0.0040     1.1960 ca         1 89G      -0.106000
     10 C2           5.3700    -3.5290     2.1400 ca         1 89G      -0.145000
     11 C3          -0.0050     0.0100     2.3960 ca         1 89G      -0.086500
     12 C9           3.3430    -2.3240     1.6960 ca         1 89G      -0.203000
     13 C11          2.0730     0.0000     1.2030 ca         1 89G       0.102100
     14 C12          4.0700    -1.1590     1.5130 ca         1 89G       0.174100
     15 C14          6.2480     0.0590     1.4450 cd         1 89G       0.447200
     16 C16          7.7150     2.3720     1.0750 c          1 89G       0.608700
     17 C18          5.7310     0.8390    -2.1720 c3         1 89G       0.239700
     18 N19          6.9040     0.5930     2.4500 nc         1 89G      -0.489300
     19 N20          7.6450     1.7670     2.2750 n          1 89G       0.139200
     20 O21          8.3770     3.3890     0.9460 o          1 89G      -0.694500
     21 O22          3.4320     0.0000     1.2060 os         1 89G      -0.216200
     22 H1          -0.5410    -0.0020    -0.9390 ha         1 89G       0.106000
     23 H2           3.4200    -4.4130     2.1500 ha         1 89G       0.102000
     24 H3           7.1840    -2.3980     2.0680 ha         1 89G       0.109000
     25 H4           1.9140     0.0120     3.3430 ha         1 89G       0.117500
     26 H5           1.9240    -0.0060    -0.9380 ha         1 89G       0.117500
     27 H6           7.0880     2.3260    -0.9950 ha         1 89G       0.155000
     28 H7           8.0560     3.3680     3.5580 h1         1 89G       0.021367
     29 H8           8.1460     1.7670     4.3070 h1         1 89G       0.021367
     30 H9           9.4320     2.3080     3.2200 h1         1 89G       0.021367
     31 H10         -1.7770     0.0040     1.1930 ha         1 89G       0.106000
     32 H11          5.8710    -4.4570     2.3870 ha         1 89G       0.108000
     33 H12         -0.5510     0.0150     3.3320 ha         1 89G       0.106000
     34 H13          2.2640    -2.3110     1.5950 ha         1 89G       0.129000
     35 H14          6.7660     0.8580    -2.4900 h1         1 89G       0.004033
     36 H15          5.3710     1.8540    -2.0520 h1         1 89G       0.004033
     37 H16          5.1330     0.3310    -2.9190 h1         1 89G       0.004033
     38 O23          5.6300     0.1580    -0.9200 os         1 89G      -0.282900
     39 C17          8.3670     2.3400     3.4140 c3         1 89G       0.096300
@<TRIPOS>BOND
     1     1     5 ar  
     2     1     9 ar  
     3     1    22 1   
     4     2    10 ar  
     5     2    12 ar  
     6     2    23 1   
     7     3     6 ar  
     8     3    10 ar  
     9     3    24 1   
    10     4    11 ar  
    11     4    13 ar  
    12     4    25 1   
    13     5    13 ar  
    14     5    26 1   
    15     6    14 ar  
    16     6    15 1   
    17     7     8 2   
    18     7    16 1   
    19     7    27 1   
    20     8    15 1   
    21     8    38 1   
    22     9    11 ar  
    23     9    31 1   
    24    10    32 1   
    25    11    33 1   
    26    12    14 ar  
    27    12    34 1   
    28    13    21 1   
    29    14    21 1   
    30    15    18 2   
    31    16    19 1   
    32    16    20 2   
    33    17    35 1   
    34    17    36 1   
    35    17    37 1   
    36    17    38 1   
    37    18    19 1   
    38    19    39 1   
    39    28    39 1   
    40    29    39 1   
    41    30    39 1   
@<TRIPOS>SUBSTRUCTURE
     1 89G         1 TEMP              0 ****  ****    0 ROOT
