@<TRIPOS>MOLECULE
89I
   54    57     1     0     0
SMALL
bcc


@<TRIPOS>ATOM
      1 C1         -0.3230   -0.1890    0.1730 ca        1 89I      0.667900
      2 N2          1.0180   -0.3100    0.0450 nb        1 89I     -0.719000
      3 C3          1.7320   -0.2570    1.2110 ca        1 89I      0.602300
      4 C4          1.1070   -0.0840    2.4690 cp        1 89I     -0.306600
      5 C5         -0.3340    0.0070    2.4790 ca        1 89I      0.685200
      6 N6         -1.0490   -0.0290    1.3040 nb        1 89I     -0.764000
      7 C8          1.8690    0.0070    3.7070 cp        1 89I     -0.087000
      8 C9          2.7340    1.0840    3.9390 ca        1 89I     -0.079000
      9 C10         3.4580    1.1810    5.1190 ca        1 89I     -0.196500
     10 C11         3.3560    0.1830    6.1200 ca        1 89I      0.167600
     11 C12         2.4700   -0.8960    5.8800 ca        1 89I     -0.196500
     12 C13         1.7490   -0.9770    4.6960 ca        1 89I     -0.079000
     13 C18         6.3780   -0.6800   -0.2780 ca        1 89I      0.456200
     14 N19         7.6980   -0.8260   -0.4330 nb        1 89I     -0.716000
     15 C20         8.4750   -0.9640    0.6910 ca        1 89I      0.631200
     16 C21         7.8880   -0.9640    1.9930 ca        1 89I     -0.273300
     17 C22         6.5140   -0.8170    2.1240 ca        1 89I     -0.047000
     18 C23         5.7190   -0.6700    0.9750 ca        1 89I     -0.133300
     19 C27        10.5050   -2.1690    1.2520 c3        1 89I      0.149800
     20 C28        12.0370   -2.0790    1.2480 c3        1 89I      0.122400
     21 O29        12.5490   -1.8880   -0.0640 os        1 89I     -0.412600
     22 C30        11.9980   -0.7350   -0.6910 c3        1 89I      0.122400
     23 C31        10.4650   -0.7880   -0.7380 c3        1 89I      0.149800
     24 N32         9.8930   -1.0260    0.5830 nh        1 89I     -0.729300
     25 C41         3.1400   -0.3900    1.1360 cg        1 89I     -0.212000
     26 C42         4.3290   -0.5210    1.0540 ch        1 89I     -0.055000
     27 N43         4.1590    0.2270    7.2740 nh        1 89I     -0.657000
     28 C44         4.7440    1.4960    7.6250 c3        1 89I      0.185100
     29 C48         3.7910   -0.6300    8.3720 c3        1 89I      0.185100
     30 N52        -1.0150    0.0760    3.6830 nh        1 89I     -0.946500
     31 H1         -0.9090   -0.2230   -0.7710 h5        1 89I      0.053100
     32 H9          2.8440    1.8660    3.1710 ha        1 89I      0.140000
     33 H10         4.1210    2.0490    5.2540 ha        1 89I      0.136000
     34 H12         2.3420   -1.6960    6.6250 ha        1 89I      0.136000
     35 H13         1.0760   -1.8340    4.5320 ha        1 89I      0.140000
     36 H21         8.5140   -1.0580    2.8920 ha        1 89I      0.149000
     37 H22         6.0490   -0.8120    3.1220 ha        1 89I      0.152000
     38 H311       10.0870    0.2020   -1.1160 h1        1 89I      0.055950
     39 H312       10.1570   -1.5890   -1.4700 h1        1 89I      0.055950
     40 H301       12.4110   -0.7600   -1.7340 h1        1 89I      0.056700
     41 H302       12.3500    0.1860   -0.1570 h1        1 89I      0.056700
     42 H281       12.3870   -1.2470    1.9140 h1        1 89I      0.056700
     43 H282       12.4760   -3.0550    1.5830 h1        1 89I      0.056700
     44 H271       10.2030   -3.1360    0.7540 h1        1 89I      0.055950
     45 H272       10.1550   -2.2010    2.3200 h1        1 89I      0.055950
     46 H441        5.2620    1.4180    8.6170 h1        1 89I      0.038700
     47 H442        3.9820    2.3210    7.6820 h1        1 89I      0.038700
     48 H443        5.5110    1.7690    6.8510 h1        1 89I      0.038700
     49 H481        2.7270   -0.4770    8.7000 h1        1 89I      0.038700
     50 H482        4.4660   -0.4390    9.2470 h1        1 89I      0.038700
     51 H483        3.9210   -1.7000    8.0570 h1        1 89I      0.038700
     52 H521       -1.9740    0.3310    3.6680 hn        1 89I      0.429800
     53 H522       -0.4840    0.3530    4.4750 hn        1 89I      0.429800
     54 H18         5.8000   -0.5700   -1.2150 h4        1 89I      0.034100
@<TRIPOS>BOND
     1    1    2 ar  
     2    1    6 ar  
     3    1   31 1   
     4    2    3 ar  
     5    3    4 ar  
     6    3   25 1   
     7    4    5 ar  
     8    4    7 1   
     9    5    6 ar  
    10    5   30 1   
    11    7    8 ar  
    12    7   12 ar  
    13    8    9 ar  
    14    8   32 1   
    15    9   10 ar  
    16    9   33 1   
    17   10   11 ar  
    18   10   27 1   
    19   11   12 ar  
    20   11   34 1   
    21   12   35 1   
    22   13   14 ar  
    23   13   18 ar  
    24   13   54 1   
    25   14   15 ar  
    26   15   16 ar  
    27   15   24 1   
    28   16   17 ar  
    29   16   36 1   
    30   17   18 ar  
    31   17   37 1   
    32   18   26 1   
    33   19   20 1   
    34   19   24 1   
    35   19   44 1   
    36   19   45 1   
    37   20   21 1   
    38   20   42 1   
    39   20   43 1   
    40   21   22 1   
    41   22   23 1   
    42   22   40 1   
    43   22   41 1   
    44   23   24 1   
    45   23   38 1   
    46   23   39 1   
    47   25   26 3   
    48   27   28 1   
    49   27   29 1   
    50   28   46 1   
    51   28   47 1   
    52   28   48 1   
    53   29   49 1   
    54   29   50 1   
    55   29   51 1   
    56   30   52 1   
    57   30   53 1   
@<TRIPOS>SUBSTRUCTURE
     1 89I         1 TEMP              0 ****  ****    0 ROOT
