@<TRIPOS>MOLECULE
molecule
   54    57     1     0     0
SMALL
bcc


@<TRIPOS>ATOM
      1 C1           0.0000     0.0000     0.0000 ca         1 89I       0.668900
      2 N2           1.3460     0.0000     0.0000 nb         1 89I      -0.717000
      3 C3           1.9150     0.0000     1.2220 ca         1 89I       0.612300
      4 C4           1.2000     0.0020     2.4020 cp         1 89I      -0.307600
      5 C5          -0.1730     0.0020     2.2670 ca         1 89I       0.710200
      6 N6          -0.8100     0.0010     1.0770 nb         1 89I      -0.764000
      7 C8           1.8520     0.0020     3.6970 cp         1 89I      -0.085000
      8 C9           2.1640     1.2100     4.3160 ca         1 89I      -0.073500
      9 C10          2.7920     1.2120     5.5620 ca         1 89I      -0.196000
     10 C11          3.1060     0.0040     6.1860 ca         1 89I       0.206600
     11 C12          2.7920    -1.2040     5.5640 ca         1 89I      -0.196000
     12 C13          2.1640    -1.2060     4.3190 ca         1 89I      -0.073500
     13 C18          7.0000    -1.2700     1.5020 ca         1 89I       0.517200
     14 N19          8.0680    -0.9580     1.9990 nb         1 89I      -0.669000
     15 C20          8.5560     0.1820     1.9190 ca         1 89I       0.541200
     16 C21          7.7310     1.6620     1.7810 ca         1 89I      -0.164300
     17 C22          6.6110     1.2820     1.0610 ca         1 89I      -0.137000
     18 C23          6.3120    -0.0280     0.7380 ca         1 89I      -0.033300
     19 C27         10.5740    -0.0130     3.3960 c3         1 89I       0.105300
     20 C28         11.7190     0.4200     4.4280 c3         1 89I       0.100900
     21 O29         12.0130     1.8760     4.3640 os         1 89I      -0.386600
     22 C30         10.6980     2.4680     4.1490 c3         1 89I       0.100900
     23 C31          9.7390     2.2230     3.3390 c3         1 89I       0.105300
     24 N32          9.3210     0.8870     3.4440 nh         1 89I      -0.652300
     25 C41          3.3450     0.0010     1.1830 cg         1 89I      -0.250000
     26 C42          4.5500     0.0160     1.1340 ch         1 89I      -0.125000
     27 N43          3.7400     0.0070     7.4450 nh         1 89I      -0.754000
     28 C44          4.6280     1.0900     7.8190 c3         1 89I       0.233100
     29 C48          3.5020    -1.0680     8.3890 c3         1 89I       0.233100
     30 N52         -0.9750     0.0010     3.4360 nv         1 89I      -1.011500
     31 H1          -0.5410    -0.0000    -0.9390 h5         1 89I       0.049100
     32 H9           1.8580     2.1450     3.8630 ha         1 89I       0.136000
     33 H10          3.0350     2.1510     6.0450 ha         1 89I       0.135500
     34 H12          3.0360    -2.1420     6.0480 ha         1 89I       0.135500
     35 H13          1.8580    -2.1420     3.8670 ha         1 89I       0.136000
     36 H21          8.0880     2.6820     1.8490 ha         1 89I       0.176000
     37 H22          5.9860     2.0700     0.6590 ha         1 89I       0.145000
     38 H311         8.9050     2.8750     3.5700 h1         1 89I       0.055950
     39 H312        10.0740     2.4110     2.3260 h1         1 89I       0.055950
     40 H301        10.9140     3.5160     3.9800 h1         1 89I       0.046450
     41 H302        10.2300     2.4130     5.1240 h1         1 89I       0.046450
     42 H281        11.3980     0.1720     5.4320 h1         1 89I       0.046450
     43 H282        12.6240    -0.1290     4.1970 h1         1 89I       0.046450
     44 H271        10.2750    -1.0300     3.6210 h1         1 89I       0.055950
     45 H272        10.9830     0.0190     2.3930 h1         1 89I       0.055950
     46 H441         4.3110     2.0020     7.3270 h1         1 89I       0.032700
     47 H442         4.5950     1.2290     8.8930 h1         1 89I       0.032700
     48 H443         5.6390     0.8480     7.5170 h1         1 89I       0.032700
     49 H481         3.3030    -1.9860     7.8490 h1         1 89I       0.032700
     50 H482         4.3770    -1.2000     9.0150 h1         1 89I       0.032700
     51 H483         2.6490    -0.8210     9.0100 h1         1 89I       0.032700
     52 H521        -1.9720    -0.0350     3.3590 hn         1 89I       0.443800
     53 H522        -0.5450     0.0720     4.3370 hn         1 89I       0.443800
     54 H18          6.6860    -2.3030     1.4200 h4         1 89I       0.053100
@<TRIPOS>BOND
     1     1     2 ar
     2     1     6 ar
     3     1    31 1
     4     2     3 ar
     5     3    25 1
     6     3     4 ar
     7     4     7 1
     8     4     5 ar
     9     5    30 1
    10     5     6 ar
    11     7    12 ar
    12     7     8 ar
    13     8     9 ar
    14     8    32 1
    15     9    10 ar
    16     9    33 1
    17    10    27 1
    18    10    11 ar
    19    11    12 ar
    20    11    34 1
    21    12    35 1
    22    13    14 ar
    23    13    18 ar
    24    13    54 1
    25    14    15 ar
    26    15    24 1
    27    15    16 ar
    28    16    17 ar
    29    16    36 1
    30    17    18 ar
    31    17    37 1
    32    18    26 1
    33    19    20 1
    34    19    24 1
    35    19    44 1
    36    19    45 1
    37    20    21 1
    38    20    42 1
    39    20    43 1
    40    21    22 1
    41    22    23 1
    42    22    40 1
    43    22    41 1
    44    23    24 1
    45    23    38 1
    46    23    39 1
    47    25    26 3
    48    27    28 1
    49    27    29 1
    50    28    46 1
    51    28    47 1
    52    28    48 1
    53    29    49 1
    54    29    50 1
    55    29    51 1
    56    30    52 1
    57    30    53 1
@<TRIPOS>SUBSTRUCTURE
     1 89I         1 TEMP              0 ****  ****    0 ROOT
