@<TRIPOS>MOLECULE
89J
   29    30     1     0     0
SMALL
bcc


@<TRIPOS>ATOM
      1 C4           0.0000     0.0000     0.0000 ca         1 89J      -0.101000
      2 C5           2.0850     0.0000     1.2110 ca         1 89J      -0.101000
      3 C6           1.3940     0.0000     0.0000 ca         1 89J      -0.097900
      4 C7           4.0260    -0.7300    -2.6430 cc         1 89J      -0.362200
      5 C8           2.1390    -0.0010    -1.2810 cd         1 89J       0.332200
      6 C10          3.4440     0.0410    -3.6610 c          1 89J       0.587700
      7 C1           0.0030    -0.0060     2.3940 ca         1 89J      -0.099000
      8 C2          -0.6880     0.0000     1.1970 ca         1 89J      -0.095500
      9 C3           1.3870    -0.0000     2.4020 ca         1 89J      -0.095500
     10 C9           3.3790    -0.7720    -1.4180 cd         1 89J      -0.001600
     11 C12          5.1870    -2.1700    -0.4890 c3         1 89J       0.192100
     12 N13          1.6890     0.6810    -2.3090 nc         1 89J      -0.475300
     13 N14          2.3000     0.7080    -3.4360 n          1 89J       0.231200
     14 N15          3.8830    -1.5130    -0.3650 nu         1 89J      -0.402000
     15 O16          3.9800     0.1070    -4.7570 o          1 89J      -0.700500
     16 H1          -0.5430     0.0020    -0.9380 ha         1 89J       0.115000
     17 H2           3.1680     0.0020     1.2170 ha         1 89J       0.115000
     18 H3           4.9470    -1.2750    -2.8100 ha         1 89J       0.154000
     19 H4          -0.5410    -0.0060     3.3310 ha         1 89J       0.103000
     20 H5          -1.7710    -0.0020     1.1980 ha         1 89J       0.104500
     21 H6           1.9230    -0.0030     3.3430 ha         1 89J       0.104500
     22 H7           2.4360     2.2580    -4.8340 h1         1 89J       0.026700
     23 H8           1.4980     0.8550    -5.3620 h1         1 89J       0.026700
     24 H9           0.8160     1.9810    -4.1810 h1         1 89J       0.026700
     25 H10          5.9440    -1.4300    -0.7200 h1         1 89J       0.011033
     26 H11          5.1460    -2.9060    -1.2830 h1         1 89J       0.011033
     27 H12          5.4340    -2.6600     0.4450 h1         1 89J       0.011033
     28 H13          3.3340    -1.6440     0.4620 hn         1 89J       0.313800
     29 C11          1.7250     1.5020    -4.5240 c3         1 89J       0.066300
@<TRIPOS>BOND
     1     1     3 ar  
     2     1     8 ar  
     3     1    16 1   
     4     2     3 ar  
     5     2     9 ar  
     6     2    17 1   
     7     3     5 1   
     8     4     6 1   
     9     4    10 2   
    10     4    18 1   
    11     5    10 1   
    12     5    12 2   
    13     6    13 1   
    14     6    15 2   
    15     7     8 ar  
    16     7     9 ar  
    17     7    19 1   
    18     8    20 1   
    19     9    21 1   
    20    10    14 1   
    21    11    14 1   
    22    11    25 1   
    23    11    26 1   
    24    11    27 1   
    25    12    13 1   
    26    13    29 1   
    27    14    28 1   
    28    22    29 1   
    29    23    29 1   
    30    24    29 1   
@<TRIPOS>SUBSTRUCTURE
     1 89J         1 TEMP              0 ****  ****    0 ROOT
