@<TRIPOS>MOLECULE
89M
   91    94     1     0     0
SMALL
bcc


@<TRIPOS>ATOM
      1 CAA          0.0000     0.0000     0.0000 c3         1 89M       0.006900
      2 CAO          1.5300     0.0000     0.0000 c3         1 89M      -0.028400
      3 CAQ          2.0400     0.0000     1.4420 c3         1 89M      -0.029400
      4 CAR          3.5700     0.0000     1.4430 c3         1 89M      -0.028400
      5 CAS          4.0800     0.0000     2.8850 c3         1 89M      -0.029400
      6 CAT          5.6100     0.0010     2.8840 c3         1 89M      -0.021400
      7 CAU          6.1200     0.0010     4.3280 c3         1 89M      -0.043400
      8 CAV          7.6500     0.0010     4.3280 c3         1 89M       0.047000
      9 NBD          8.1390     0.0010     5.7090 ns         1 89M      -0.189900
     10 C            9.4640     0.0010     5.9550 c          1 89M       0.554100
     11 O           10.2520     0.0010     5.0330 o          1 89M      -0.629100
     12 CA           9.9660     0.0010     7.3760 c3         1 89M      -0.034300
     13 N           11.3530    -0.4700     7.4030 ns         1 89M      -0.163900
     14 CBH         12.3050     0.1950     6.7210 c          1 89M       0.578100
     15 OAD         12.0140     1.1870     6.0850 o          1 89M      -0.604100
     16 CBO         13.7320    -0.2900     6.7500 c3         1 89M      -0.127700
     17 CAY         13.7980    -1.7110     6.1860 c3         1 89M      -0.008900
     18 CAW         15.2460    -2.2040     6.2140 c3         1 89M      -0.023400
     19 CBN         16.1180    -1.2760     5.3650 c3         1 89M      -0.070700
     20 CAP         17.5660    -1.7690     5.3940 c3         1 89M      -0.051200
     21 NAB         18.3790    -0.9510     4.4850 nz         1 89M       0.080400
     22 CAX         16.0520     0.1450     5.9290 c3         1 89M      -0.023400
     23 CAZ         14.6020     0.6370     5.9010 c3         1 89M      -0.008900
     24 CB           9.9000     1.4220     7.9400 c3         1 89M       0.007900
     25 CG          10.2850     1.4020     9.3960 ca         1 89M      -0.142300
     26 CD2          9.3150     1.2140    10.3640 ca         1 89M      -0.058500
     27 CE2          9.6660     1.1950    11.7000 ca         1 89M      -0.173500
     28 CD1         11.6080     1.5670     9.7630 ca         1 89M      -0.058500
     29 CE1         11.9640     1.5480    11.0980 ca         1 89M      -0.173500
     30 CZ          10.9920     1.3650    12.0710 ca         1 89M       0.159100
     31 OH          11.3400     1.3470    13.3850 os         1 89M      -0.304900
     32 CBA         12.7240     1.5280    13.6930 c3         1 89M       0.160100
     33 CBK         12.9170     1.4790    15.1860 ca         1 89M       0.364600
     34 NBC         14.1230     1.6250    15.6780 nb         1 89M      -0.568000
     35 CBM         14.3450     1.5890    16.9960 ca         1 89M       0.374600
     36 CAM         15.6400     1.7470    17.5190 ca         1 89M      -0.146300
     37 CAF         15.8350     1.7060    18.8650 ca         1 89M      -0.087000
     38 CAE         14.7680     1.5090    19.7400 ca         1 89M      -0.093000
     39 CAL         13.5000     1.3530    19.2710 ca         1 89M      -0.078000
     40 CBL         13.2620     1.3890    17.8880 ca         1 89M      -0.148300
     41 CAN         11.9650     1.2310    17.3620 ca         1 89M      -0.046000
     42 CAK         11.8090     1.2840    16.0070 ca         1 89M      -0.209300
     43 H1          -0.3610     0.8850     0.5100 hc         1 89M       0.001367
     44 H2          -0.3610    -0.8840     0.5110 hc         1 89M       0.001367
     45 H3          -0.3610    -0.0000    -1.0210 hc         1 89M       0.001367
     46 H4           1.8910    -0.8840    -0.5110 hc         1 89M       0.012200
     47 H5           1.8910     0.8840    -0.5110 hc         1 89M       0.012200
     48 H6           1.6790    -0.8850     1.9530 hc         1 89M       0.015200
     49 H7           1.6790     0.8840     1.9530 hc         1 89M       0.015200
     50 H8           3.9310     0.8850     0.9320 hc         1 89M       0.015200
     51 H9           3.9310    -0.8840     0.9320 hc         1 89M       0.015200
     52 H10          3.7200    -0.8850     3.3950 hc         1 89M       0.015700
     53 H11          3.7180     0.8840     3.3960 hc         1 89M       0.015700
     54 H12          5.9720    -0.8830     2.3740 hc         1 89M       0.018200
     55 H13          5.9710     0.8860     2.3740 hc         1 89M       0.018200
     56 H14          5.7590    -0.8830     4.8390 hc         1 89M       0.018200
     57 H15          5.7590     0.8860     4.8380 hc         1 89M       0.018200
     58 H16          8.0110     0.8860     3.8170 h1         1 89M       0.028200
     59 H17          8.0110    -0.8830     3.8170 h1         1 89M       0.028200
     60 H18          7.4890    -0.0320     6.4690 hn         1 89M       0.174500
     61 H19          9.3490    -0.6550     7.9770 h1         1 89M       0.039700
     62 H20         11.5870    -1.3050     7.9040 hn         1 89M       0.170500
     63 H21         14.0970    -0.2920     7.7700 hc         1 89M       0.040700
     64 H22         13.1830    -2.3670     6.7890 hc         1 89M       0.041450
     65 H23         13.4390    -1.7090     5.1640 hc         1 89M       0.041450
     66 H24         15.2920    -3.2080     5.8120 hc         1 89M       0.017450
     67 H25         15.6070    -2.2010     7.2350 hc         1 89M       0.017450
     68 H26         15.7530    -1.2740     4.3450 hc         1 89M       0.051700
     69 H27         17.6010    -2.8040     5.0770 hx         1 89M       0.084200
     70 H28         17.9560    -1.6870     6.4010 hx         1 89M       0.084200
     71 H29         18.6410    -0.1020     4.9450 hn         1 89M       0.225133
     72 H30         17.8490    -0.7370     3.6640 hn         1 89M       0.225133
     73 H32         16.4110     0.1430     6.9510 hc         1 89M       0.017450
     74 H33         16.6670     0.8010     5.3260 hc         1 89M       0.017450
     75 H34         14.5560     1.6420     6.3030 hc         1 89M       0.041450
     76 H35         14.2420     0.6350     4.8790 hc         1 89M       0.041450
     77 H36          8.8910     1.8040     7.8380 hc         1 89M       0.050200
     78 H37         10.5840     2.0600     7.3940 hc         1 89M       0.050200
     79 H38          8.2800     1.0810    10.0750 ha         1 89M       0.104000
     80 H39          8.9060     1.0500    12.4580 ha         1 89M       0.121000
     81 H40         12.3660     1.7100     9.0030 ha         1 89M       0.104000
     82 H41         13.0000     1.6790    11.3840 ha         1 89M       0.121000
     83 H42         13.0550     2.4890    13.3170 h1         1 89M       0.015200
     84 H43         13.3040     0.7400    13.2270 h1         1 89M       0.015200
     85 H44         16.4800     1.9010    16.8530 ha         1 89M       0.114000
     86 H45         16.8350     1.8280    19.2630 ha         1 89M       0.105000
     87 H46         14.9510     1.4810    20.8070 ha         1 89M       0.107000
     88 H47         12.6790     1.2000    19.9610 ha         1 89M       0.110000
     89 H48         11.1140     1.0800    18.0160 ha         1 89M       0.114000
     90 H49         10.8200     1.2060    15.5720 ha         1 89M       0.130000
     91 HAB3        19.2090    -1.4530     4.2380 hn         1 89M       0.225133
@<TRIPOS>BOND
     1     1     2 1   
     2     1    43 1   
     3     1    44 1   
     4     1    45 1   
     5     2     3 1   
     6     2    46 1   
     7     2    47 1   
     8     3     4 1   
     9     3    48 1   
    10     3    49 1   
    11     4     5 1   
    12     4    50 1   
    13     4    51 1   
    14     5     6 1   
    15     5    52 1   
    16     5    53 1   
    17     6     7 1   
    18     6    54 1   
    19     6    55 1   
    20     7     8 1   
    21     7    56 1   
    22     7    57 1   
    23     8     9 1   
    24     8    58 1   
    25     8    59 1   
    26     9    10 1   
    27     9    60 1   
    28    10    11 2   
    29    10    12 1   
    30    12    13 1   
    31    12    24 1   
    32    12    61 1   
    33    13    14 1   
    34    13    62 1   
    35    14    15 2   
    36    14    16 1   
    37    16    17 1   
    38    16    23 1   
    39    16    63 1   
    40    17    18 1   
    41    17    64 1   
    42    17    65 1   
    43    18    19 1   
    44    18    66 1   
    45    18    67 1   
    46    19    20 1   
    47    19    22 1   
    48    19    68 1   
    49    20    21 1   
    50    20    69 1   
    51    20    70 1   
    52    21    71 1   
    53    21    72 1   
    54    21    91 1   
    55    22    23 1   
    56    22    73 1   
    57    22    74 1   
    58    23    75 1   
    59    23    76 1   
    60    24    25 1   
    61    24    77 1   
    62    24    78 1   
    63    25    26 ar  
    64    25    28 ar  
    65    26    27 ar  
    66    26    79 1   
    67    27    30 ar  
    68    27    80 1   
    69    28    29 ar  
    70    28    81 1   
    71    29    30 ar  
    72    29    82 1   
    73    30    31 1   
    74    31    32 1   
    75    32    33 1   
    76    32    83 1   
    77    32    84 1   
    78    33    34 ar  
    79    33    42 ar  
    80    34    35 ar  
    81    35    36 ar  
    82    35    40 ar  
    83    36    37 ar  
    84    36    85 1   
    85    37    38 ar  
    86    37    86 1   
    87    38    39 ar  
    88    38    87 1   
    89    39    40 ar  
    90    39    88 1   
    91    40    41 ar  
    92    41    42 ar  
    93    41    89 1   
    94    42    90 1   
@<TRIPOS>SUBSTRUCTURE
     1 89M         1 TEMP              0 ****  ****    0 ROOT
