@<TRIPOS>MOLECULE
molecule
   49    53     1     0     0
SMALL
bcc


@<TRIPOS>ATOM
      1 C10          0.0000     0.0000     0.0000 ca         1 89O      -0.103000
      2 C15          2.1230     2.4780    -1.1200 ca         1 89O      -0.239500
      3 C17          2.0160     3.9300    -3.0320 ca         1 89O       0.047100
      4 C24          2.2670     4.5870     0.5670 c3         1 89O       0.126200
      5 C28          5.6090     0.2090    -0.4180 c3         1 89O       0.144400
      6 C01          3.6280     0.0140     1.2220 c3         1 89O       0.213400
      7 C02          4.1280     0.4970    -0.1280 c3         1 89O      -0.134700
      8 C03          3.4950    -0.4690    -1.1800 c3         1 89O      -0.185700
      9 C04          2.0640    -0.0100    -1.3650 c3         1 89O       0.051900
     10 C05          1.3960     0.0000     0.0000 ca         1 89O      -0.053300
     11 C06          2.1100     0.0000     1.1790 ca         1 89O      -0.110300
     12 C07          1.4610    -0.0100     2.4150 ca         1 89O      -0.109000
     13 C08          0.0770    -0.0110     2.4230 ca         1 89O       0.047100
     14 C09         -0.6500     0.0020     1.2220 ca         1 89O       0.058100
     15 O11         -1.9700     0.0020     1.5130 os         1 89O      -0.315900
     16 C12         -2.0610     0.3820     2.9010 c3         1 89O       0.329200
     17 O13         -0.7930    -0.0170     3.4590 os         1 89O      -0.320900
     18 C14          2.0450     1.3770    -1.9510 ca         1 89O      -0.027300
     19 C16          2.1060     3.7570    -1.6560 ca         1 89O       0.152600
     20 C18          1.9330     2.8210    -3.8650 ca         1 89O       0.152600
     21 C19          1.9510     1.5450    -3.3210 ca         1 89O      -0.239500
     22 O20          1.8450     2.9840    -5.2120 os         1 89O      -0.312400
     23 O23          2.1770     4.8400    -0.8370 os         1 89O      -0.312400
     24 C25          4.4170    -0.2900    -2.3490 c          1 89O       0.751600
     25 O26          4.1210    -0.4350    -3.5120 o          1 89O      -0.570500
     26 O27          5.6370     0.0620    -1.8790 os         1 89O      -0.404900
     27 O29          4.1170    -1.3030     1.4760 oh         1 89O      -0.596800
     28 H101        -0.5420    -0.2610    -0.9010 ha         1 89O       0.159000
     29 H151         2.1930     2.3430    -0.0470 ha         1 89O       0.150000
     30 H213         0.9260     1.1980    -5.6700 h1         1 89O       0.043533
     31 H211         2.6790     1.2320    -5.9030 h1         1 89O       0.043533
     32 H212         1.6190     2.0690    -7.0440 h1         1 89O       0.043533
     33 H242         2.2430     5.5260     1.1050 h1         1 89O       0.043533
     34 H243         3.1950     4.0710     0.7810 h1         1 89O       0.043533
     35 H241         1.4310     3.9720     0.8770 h1         1 89O       0.043533
     36 H281         5.9210    -0.7090     0.0640 h1         1 89O       0.072200
     37 H282         6.2270     1.0430    -0.1070 h1         1 89O       0.072200
     38 H011         3.9640     0.6910     1.9980 h1         1 89O       0.041700
     39 H021         3.8660     1.5300    -0.3210 hc         1 89O       0.104700
     40 H031         3.5260    -1.4920    -0.8220 hc         1 89O       0.116700
     41 H041         1.5430    -0.6980    -2.0200 hc         1 89O       0.083700
     42 H071         2.0080     0.2400     3.3160 ha         1 89O       0.145000
     43 H121        -2.8710    -0.1490     3.3870 h2         1 89O       0.072700
     44 H122        -2.1930     1.4540     2.9920 h2         1 89O       0.072700
     45 H191         1.8880     0.6790    -3.9690 ha         1 89O       0.150000
     46 H221         2.8820     5.4560    -3.7530 ho         1 89O       0.414000
     47 H291         4.3770    -1.3730     2.3800 ho         1 89O       0.410000
     48 O22          2.0000     5.1830    -3.5630 oh         1 89O      -0.492100
     49 C21          1.7620     1.7990    -6.0050 c3         1 89O       0.126200
@<TRIPOS>BOND
     1    17    16 1   
     2    17    13 1   
     3    16    15 1   
     4    12    13 ar  
     5    12    11 ar  
     6    13    14 ar  
     7    27     6 1   
     8     6    11 1   
     9     6     7 1   
    10    15    14 1   
    11    11    10 ar  
    12    14     1 ar  
    13     7     5 1   
    14     7     8 1   
    15     5    26 1   
    16    10     1 ar  
    17    10     9 1   
    18    49    22 1   
    19     8     9 1   
    20     8    24 1   
    21     9    18 1   
    22    26    24 1   
    23    21    18 ar  
    24    21    20 ar  
    25    22    20 1   
    26    24    25 2   
    27    18     2 ar  
    28    20     3 ar  
    29     2    19 ar  
    30     3    19 ar  
    31     3    48 1   
    32    19    23 1   
    33    23     4 1   
    34     1    28 1   
    35     2    29 1   
    36    49    30 1   
    37    49    31 1   
    38    49    32 1   
    39     4    33 1   
    40     4    34 1   
    41     4    35 1   
    42     5    36 1   
    43     5    37 1   
    44     6    38 1   
    45     7    39 1   
    46     8    40 1   
    47     9    41 1   
    48    12    42 1   
    49    16    43 1   
    50    16    44 1   
    51    21    45 1   
    52    48    46 1   
    53    27    47 1   
@<TRIPOS>SUBSTRUCTURE
     1 89O         1 TEMP              0 ****  ****    0 ROOT
