@<TRIPOS>MOLECULE
89P
   58    62     1     0     0
SMALL
bcc


@<TRIPOS>ATOM
      1 C1          0.3440    0.0330    0.2580 c3        1 89P     -0.090600
      2 C2          1.8560   -0.0820    0.1960 c3        1 89P     -0.107000
      3 C3          2.4390   -0.2300    1.5890 c3        1 89P     -0.090600
      4 C4          2.2590   -1.2130   -0.6650 cc        1 89P      0.303000
      5 O5          1.9020   -2.5180   -0.2380 os        1 89P     -0.118100
      6 N6          2.3290   -3.4140   -1.1010 nc        1 89P     -0.334300
      7 C7          2.9720   -2.7870   -2.1080 cd        1 89P      0.363800
      8 C8          2.9450   -1.3390   -1.8590 cd        1 89P     -0.303900
      9 C9          3.5190   -0.3230   -2.7580 c3        1 89P      0.207700
     10 O10         3.8930    0.8150   -1.9690 os        1 89P     -0.339900
     11 C11         4.6650    1.7580   -2.6310 ca        1 89P      0.102100
     12 C12         5.2980    2.6950   -1.7960 ca        1 89P     -0.176500
     13 C13         6.0620    3.7050   -2.3660 ca        1 89P     -0.098000
     14 C14         6.2140    3.7970   -3.7600 cp        1 89P     -0.029000
     15 C15         5.5760    2.8520   -4.5740 ca        1 89P     -0.098000
     16 C16         4.8010    1.8340   -4.0210 ca        1 89P     -0.176500
     17 C17         7.0230    4.8600   -4.3500 cp        1 89P     -0.083000
     18 C18         8.2410    5.2480   -3.7310 ca        1 89P     -0.133000
     19 C19         9.0250    6.2380   -4.2640 ca        1 89P     -0.169300
     20 C20         8.6370    6.9180   -5.4640 ca        1 89P      0.411600
     21 N21         9.4460    7.9140   -5.9820 nb        1 89P     -0.666000
     22 C22         9.0540    8.5200   -7.0930 ca        1 89P      0.406800
     23 C23         7.8270    8.1860   -7.7770 ca        1 89P     -0.209300
     24 C24         7.0210    7.2030   -7.2750 ca        1 89P     -0.124000
     25 C25         7.4100    6.5250   -6.0800 ca        1 89P     -0.171300
     26 C26         6.6250    5.4980   -5.5110 ca        1 89P     -0.087000
     27 C27         9.9020    9.6450   -7.7420 c         1 89P      0.826100
     28 O28        10.7300    9.2860   -8.6150 o         1 89P     -0.801800
     29 O29         9.6440   10.8190   -7.3790 o         1 89P     -0.801800
     30 C30         3.5910   -3.4390   -3.2560 ca        1 89P     -0.117500
     31 C31         4.9550   -3.7760   -3.2390 ca        1 89P      0.045900
     32 CL32        5.9050   -3.4540   -1.8710 cl        1 89P     -0.066900
     33 C33         5.5530   -4.3810   -4.3490 ca        1 89P     -0.131000
     34 C34         4.7900   -4.6620   -5.4800 ca        1 89P     -0.104000
     35 C35         3.4340   -4.3460   -5.5120 ca        1 89P     -0.131000
     36 C36         2.8360   -3.7400   -4.4020 ca        1 89P      0.045900
     37 CL37        1.1800   -3.3690   -4.4640 cl        1 89P     -0.066900
     38 H1          0.0590    0.9000    0.9010 hc        1 89P      0.043200
     39 H1A        -0.0790    0.1920   -0.7630 hc        1 89P      0.043200
     40 H1B        -0.1000   -0.8960    0.6880 hc        1 89P      0.043200
     41 H2          2.2780    0.8550   -0.2780 hc        1 89P      0.095700
     42 H3          2.1340    0.6400    2.2190 hc        1 89P      0.043200
     43 H3A         3.5540   -0.2650    1.5420 hc        1 89P      0.043200
     44 H3B         2.0720   -1.1690    2.0670 hc        1 89P      0.043200
     45 H9          2.7520    0.0020   -3.5160 h1        1 89P      0.055700
     46 H9A         4.4200   -0.7360   -3.2880 h1        1 89P      0.055700
     47 H12         5.1760    2.6200   -0.7070 ha        1 89P      0.135000
     48 H13         6.5530    4.4480   -1.7180 ha        1 89P      0.140500
     49 H15         5.6920    2.9120   -5.6670 ha        1 89P      0.140500
     50 H16         4.3090    1.1080   -4.6820 ha        1 89P      0.135000
     51 H18         8.5550    4.7290   -2.8130 ha        1 89P      0.119000
     52 H19         9.9700    6.5260   -3.7770 ha        1 89P      0.143000
     53 H23         7.5810    8.7420   -8.6920 ha        1 89P      0.147000
     54 H24         6.0790    6.9180   -7.7630 ha        1 89P      0.114000
     55 H26         5.6810    5.2200   -6.0050 ha        1 89P      0.119000
     56 H33         6.6250   -4.6340   -4.3280 ha        1 89P      0.153000
     57 H34         5.2620   -5.1360   -6.3540 ha        1 89P      0.144000
     58 H35         2.8340   -4.5730   -6.4060 ha        1 89P      0.153000
@<TRIPOS>BOND
     1    1    2 1
     2    1   38 1
     3    1   39 1
     4    1   40 1
     5    2    3 1
     6    2    4 1
     7    2   41 1
     8    3   42 1
     9    3   43 1
    10    3   44 1
    11    4    5 1
    12    4    8 2
    13    5    6 1
    14    6    7 2
    15    7    8 1
    16    7   30 1
    17    8    9 1
    18    9   10 1
    19    9   45 1
    20    9   46 1
    21   10   11 1
    22   11   12 ar
    23   11   16 ar
    24   12   13 ar
    25   12   47 1
    26   13   14 ar
    27   13   48 1
    28   14   15 ar
    29   14   17 1
    30   15   16 ar
    31   15   49 1
    32   16   50 1
    33   17   18 ar
    34   17   26 ar
    35   18   19 ar
    36   18   51 1
    37   19   20 ar
    38   19   52 1
    39   20   21 ar
    40   20   25 ar
    41   21   22 ar
    42   22   23 ar
    43   22   27 1
    44   23   24 ar
    45   23   53 1
    46   24   25 ar
    47   24   54 1
    48   25   26 ar
    49   26   55 1
    50   27   28 1
    51   27   29 1
    52   30   31 ar
    53   30   36 ar
    54   31   32 1
    55   31   33 ar
    56   33   34 ar
    57   33   56 1
    58   34   35 ar
    59   34   57 1
    60   35   36 ar
    61   35   58 1
    62   36   37 1
@<TRIPOS>SUBSTRUCTURE
     1 89P         1 TEMP              0 ****  ****    0 ROOT
