@<TRIPOS>MOLECULE
89S
   85    87     1     0     0
SMALL
bcc


@<TRIPOS>ATOM
      1 CAA          0.0000     0.0000     0.0000 c3         1 89S       0.006900
      2 CAM          1.5300     0.0000     0.0000 c3         1 89S      -0.028400
      3 CAO          2.0400     0.0000     1.4420 c3         1 89S      -0.029400
      4 CAP          3.5700     0.0010     1.4410 c3         1 89S      -0.028400
      5 CAQ          4.0800     0.0010     2.8840 c3         1 89S      -0.029400
      6 CAR          5.6110     0.0010     2.8840 c3         1 89S      -0.022400
      7 CAS          6.1210     0.0020     4.3250 c3         1 89S      -0.042400
      8 CAT          7.6510     0.0020     4.3250 c3         1 89S       0.048000
      9 NBB          8.1390     0.0020     5.7070 ns         1 89S      -0.190900
     10 C            9.4650     0.0020     5.9530 c          1 89S       0.554100
     11 O           10.2520     0.0020     5.0300 o          1 89S      -0.629100
     12 CA           9.9680     0.0030     7.3730 c3         1 89S      -0.034300
     13 N           11.3540    -0.4690     7.4000 ns         1 89S      -0.168900
     14 CBF         12.3060     0.1970     6.7180 c          1 89S       0.577100
     15 OAD         12.0150     1.1870     6.0810 o          1 89S      -0.595100
     16 CBK         13.7330    -0.2890     6.7460 c3         1 89S      -0.127700
     17 CAW         14.6040     0.6380     5.8970 c3         1 89S      -0.009400
     18 CAU         16.0520     0.1450     5.9250 c3         1 89S      -0.022900
     19 CBJ         16.1180    -1.2750     5.3610 c3         1 89S      -0.069700
     20 CAN         17.5660    -1.7690     5.3910 c3         1 89S      -0.051200
     21 NAB         17.6490    -3.0840     4.7400 nz         1 89S       0.079400
     22 CAV         15.2470    -2.2030     6.2110 c3         1 89S      -0.022900
     23 CAX         13.7990    -1.7100     6.1820 c3         1 89S      -0.009400
     24 CB           9.9010     1.4230     7.9370 c3         1 89S       0.008900
     25 CG          10.2870     1.4050     9.3930 ca         1 89S      -0.142300
     26 CD2          9.3180     1.2170    10.3620 ca         1 89S      -0.058500
     27 CE2          9.6690     1.1980    11.6970 ca         1 89S      -0.173500
     28 CD1         11.6110     1.5680     9.7600 ca         1 89S      -0.058500
     29 CE1         11.9670     1.5510    11.0940 ca         1 89S      -0.173500
     30 CZ          10.9950     1.3680    12.0670 ca         1 89S       0.155100
     31 OH          11.3430     1.3500    13.3820 os         1 89S      -0.295900
     32 CAY         12.7270     1.5310    13.6880 c3         1 89S       0.264700
     33 CBG         12.9210     1.4820    15.1820 ca         1 89S      -0.087300
     34 CAG         13.1800     0.2810    15.8250 ca         1 89S      -0.199300
     35 CAE         13.3520     0.2760    17.1960 ca         1 89S       0.405700
     36 NBA         13.2720     1.3930    17.8910 nb         1 89S      -0.567000
     37 CAF         13.0280     2.5530    17.3130 ca         1 89S       0.405700
     38 CAH         12.8500     2.6380    15.9460 ca         1 89S      -0.199300
     39 H1          -0.3610    -0.8840     0.5110 hc         1 89S       0.001367
     40 H2          -0.3610    -0.0000    -1.0210 hc         1 89S       0.001367
     41 H3          -0.3610     0.8850     0.5110 hc         1 89S       0.001367
     42 H4           1.8910     0.8840    -0.5110 hc         1 89S       0.012200
     43 H5           1.8910    -0.8840    -0.5110 hc         1 89S       0.012200
     44 H6           1.6790    -0.8850     1.9530 hc         1 89S       0.015200
     45 H7           1.6780     0.8840     1.9530 hc         1 89S       0.015200
     46 H8           3.9310     0.8850     0.9300 hc         1 89S       0.015700
     47 H9           3.9320    -0.8840     0.9300 hc         1 89S       0.015700
     48 H10          3.7190    -0.8830     3.3950 hc         1 89S       0.015700
     49 H11          3.7200     0.8860     3.3950 hc         1 89S       0.015700
     50 H12          5.9720    -0.8840     2.3740 hc         1 89S       0.018200
     51 H13          5.9720     0.8850     2.3720 hc         1 89S       0.018200
     52 H14          5.7600    -0.8820     4.8370 hc         1 89S       0.018200
     53 H15          5.7600     0.8870     4.8360 hc         1 89S       0.018200
     54 H16          8.0120     0.8860     3.8140 h1         1 89S       0.028200
     55 H17          8.0120    -0.8830     3.8150 h1         1 89S       0.028200
     56 H18          7.4890    -0.0340     6.4670 hn         1 89S       0.174500
     57 H19          9.3510    -0.6540     7.9750 h1         1 89S       0.038700
     58 H20         11.5870    -1.3100     7.8920 hn         1 89S       0.168500
     59 H21         14.0980    -0.2910     7.7660 hc         1 89S       0.039700
     60 H22         14.5580     1.6430     6.2990 hc         1 89S       0.041450
     61 H23         14.2430     0.6350     4.8760 hc         1 89S       0.041450
     62 H24         16.4130     0.1440     6.9460 hc         1 89S       0.017450
     63 H25         16.6670     0.8010     5.3200 hc         1 89S       0.017450
     64 H26         15.7530    -1.2740     4.3410 hc         1 89S       0.051700
     65 H27         17.8990    -1.8520     6.4180 hx         1 89S       0.085200
     66 H28         18.1980    -1.0650     4.8630 hx         1 89S       0.085200
     67 H29         17.3770    -3.7950     5.3900 hn         1 89S       0.224800
     68 H30         17.0380    -3.1040     3.9480 hn         1 89S       0.224800
     69 H32         15.6070    -2.2010     7.2320 hc         1 89S       0.017450
     70 H33         15.2930    -3.2080     5.8090 hc         1 89S       0.017450
     71 H34         13.4400    -1.7080     5.1600 hc         1 89S       0.041450
     72 H35         13.1830    -2.3660     6.7850 hc         1 89S       0.041450
     73 H36         10.5850     2.0620     7.3910 hc         1 89S       0.050700
     74 H37          8.8920     1.8050     7.8360 hc         1 89S       0.050700
     75 H38          8.2820     1.0850    10.0730 ha         1 89S       0.104500
     76 H39          8.9090     1.0540    12.4550 ha         1 89S       0.120500
     77 H40         12.3690     1.7110     8.9990 ha         1 89S       0.104500
     78 H41         13.0040     1.6810    11.3800 ha         1 89S       0.120500
     79 H42         13.3060     0.7430    13.2230 h1         1 89S       0.004200
     80 H43         13.0580     2.4920    13.3120 h1         1 89S       0.004200
     81 H44         13.2470    -0.6400    15.2600 ha         1 89S       0.115000
     82 H45         13.5550    -0.6580    17.7060 h4         1 89S      -0.016400
     83 H46         12.9720     3.4500    17.9160 h4         1 89S      -0.016400
     84 H47         12.6490     3.5940    15.4770 ha         1 89S       0.115000
     85 HAB3        18.5910    -3.2530     4.4490 hn         1 89S       0.224800
@<TRIPOS>BOND
     1     1     2 1   
     2     1    39 1   
     3     1    40 1   
     4     1    41 1   
     5     2     3 1   
     6     2    42 1   
     7     2    43 1   
     8     3     4 1   
     9     3    44 1   
    10     3    45 1   
    11     4     5 1   
    12     4    46 1   
    13     4    47 1   
    14     5     6 1   
    15     5    48 1   
    16     5    49 1   
    17     6     7 1   
    18     6    50 1   
    19     6    51 1   
    20     7     8 1   
    21     7    52 1   
    22     7    53 1   
    23     8     9 1   
    24     8    54 1   
    25     8    55 1   
    26     9    10 1   
    27     9    56 1   
    28    10    11 2   
    29    10    12 1   
    30    12    13 1   
    31    12    24 1   
    32    12    57 1   
    33    13    14 1   
    34    13    58 1   
    35    14    15 2   
    36    14    16 1   
    37    16    17 1   
    38    16    23 1   
    39    16    59 1   
    40    17    18 1   
    41    17    60 1   
    42    17    61 1   
    43    18    19 1   
    44    18    62 1   
    45    18    63 1   
    46    19    20 1   
    47    19    22 1   
    48    19    64 1   
    49    20    21 1   
    50    20    65 1   
    51    20    66 1   
    52    21    67 1   
    53    21    68 1   
    54    21    85 1   
    55    22    23 1   
    56    22    69 1   
    57    22    70 1   
    58    23    71 1   
    59    23    72 1   
    60    24    25 1   
    61    24    73 1   
    62    24    74 1   
    63    25    26 ar  
    64    25    28 ar  
    65    26    27 ar  
    66    26    75 1   
    67    27    30 ar  
    68    27    76 1   
    69    28    29 ar  
    70    28    77 1   
    71    29    30 ar  
    72    29    78 1   
    73    30    31 1   
    74    31    32 1   
    75    32    33 1   
    76    32    79 1   
    77    32    80 1   
    78    33    34 ar  
    79    33    38 ar  
    80    34    35 ar  
    81    34    81 1   
    82    35    36 ar  
    83    35    82 1   
    84    36    37 ar  
    85    37    38 ar  
    86    37    83 1   
    87    38    84 1   
@<TRIPOS>SUBSTRUCTURE
     1 89S         1 TEMP              0 ****  ****    0 ROOT
