@<TRIPOS>MOLECULE
molecule
   85    87     1     0     0
SMALL
bcc


@<TRIPOS>ATOM
      1 CAA          0.0000     0.0000     0.0000 c3         1 89S      -0.092100
      2 CAM          1.5300     0.0000     0.0000 c3         1 89S      -0.084400
      3 CAO          2.0400     0.0000     1.4420 c3         1 89S      -0.081400
      4 CAP          3.5700     0.0010     1.4410 c3         1 89S      -0.081400
      5 CAQ          4.0800     0.0010     2.8840 c3         1 89S      -0.081400
      6 CAR          5.6110     0.0010     2.8840 c3         1 89S      -0.078400
      7 CAS          6.1210     0.0020     4.3250 c3         1 89S      -0.102400
      8 CAT          7.6510     0.0020     4.3250 c3         1 89S       0.111000
      9 NBB          8.1390     0.0020     5.7070 ns         1 89S      -0.584900
     10 C            9.4650     0.0020     5.9530 c          1 89S       0.643100
     11 O           10.2520     0.0020     5.0300 o          1 89S      -0.589100
     12 CA           9.9680     0.0030     7.3730 c3         1 89S       0.055700
     13 N           11.3540    -0.4690     7.4000 ns         1 89S      -0.567900
     14 CBF         12.3060     0.1970     6.7180 c          1 89S       0.667100
     15 OAD         12.0150     1.1870     6.0810 o          1 89S      -0.564100
     16 CBK         13.7330    -0.2890     6.7460 c3         1 89S      -0.148700
     17 CAW         14.6040     0.6380     5.8970 c3         1 89S      -0.062900
     18 CAU         16.0520     0.1450     5.9250 c3         1 89S      -0.081900
     19 CBJ         16.1180    -1.2750     5.3610 c3         1 89S      -0.103700
     20 CAN         17.5660    -1.7690     5.3910 c3         1 89S       0.093800
     21 NAB         17.6490    -3.0840     4.7400 nz         1 89S      -0.809600
     22 CAV         15.2470    -2.2030     6.2110 c3         1 89S      -0.081900
     23 CAX         13.7990    -1.7100     6.1820 c3         1 89S      -0.062900
     24 CB           9.9010     1.4230     7.9370 c3         1 89S      -0.046100
     25 CG          10.2870     1.4050     9.3930 ca         1 89S      -0.127300
     26 CD2          9.3180     1.2170    10.3620 ca         1 89S      -0.087500
     27 CE2          9.6690     1.1980    11.6970 ca         1 89S      -0.188500
     28 CD1         11.6110     1.5680     9.7600 ca         1 89S      -0.087500
     29 CE1         11.9670     1.5510    11.0940 ca         1 89S      -0.188500
     30 CZ          10.9950     1.3680    12.0670 ca         1 89S       0.145100
     31 OH          11.3430     1.3500    13.3820 os         1 89S      -0.318900
     32 CAY         12.7270     1.5310    13.6880 c3         1 89S       0.186700
     33 CBG         12.9210     1.4820    15.1820 ca         1 89S      -0.064300
     34 CAG         13.1800     0.2810    15.8250 ca         1 89S      -0.232800
     35 CAE         13.3520     0.2760    17.1960 ca         1 89S       0.421200
     36 NBA         13.2720     1.3930    17.8910 nb         1 89S      -0.676000
     37 CAF         13.0280     2.5530    17.3130 ca         1 89S       0.421200
     38 CAH         12.8500     2.6380    15.9460 ca         1 89S      -0.232800
     39 H1          -0.3610    -0.8840     0.5110 hc         1 89S       0.034367
     40 H2          -0.3610    -0.0000    -1.0210 hc         1 89S       0.034367
     41 H3          -0.3610     0.8850     0.5110 hc         1 89S       0.034367
     42 H4           1.8910     0.8840    -0.5110 hc         1 89S       0.040200
     43 H5           1.8910    -0.8840    -0.5110 hc         1 89S       0.040200
     44 H6           1.6790    -0.8850     1.9530 hc         1 89S       0.042200
     45 H7           1.6780     0.8840     1.9530 hc         1 89S       0.042200
     46 H8           3.9310     0.8850     0.9300 hc         1 89S       0.041700
     47 H9           3.9320    -0.8840     0.9300 hc         1 89S       0.041700
     48 H10          3.7190    -0.8830     3.3950 hc         1 89S       0.042700
     49 H11          3.7200     0.8860     3.3950 hc         1 89S       0.042700
     50 H12          5.9720    -0.8840     2.3740 hc         1 89S       0.045700
     51 H13          5.9720     0.8850     2.3720 hc         1 89S       0.045700
     52 H14          5.7600    -0.8820     4.8370 hc         1 89S       0.046700
     53 H15          5.7600     0.8870     4.8360 hc         1 89S       0.046700
     54 H16          8.0120     0.8860     3.8140 h1         1 89S       0.054700
     55 H17          8.0120    -0.8830     3.8150 h1         1 89S       0.054700
     56 H18          7.4890    -0.0340     6.4670 hn         1 89S       0.313500
     57 H19          9.3510    -0.6540     7.9750 h1         1 89S       0.069700
     58 H20         11.5870    -1.3100     7.8920 hn         1 89S       0.314500
     59 H21         14.0980    -0.2910     7.7660 hc         1 89S       0.065700
     60 H22         14.5580     1.6430     6.2990 hc         1 89S       0.072950
     61 H23         14.2430     0.6350     4.8760 hc         1 89S       0.072950
     62 H24         16.4130     0.1440     6.9460 hc         1 89S       0.046700
     63 H25         16.6670     0.8010     5.3200 hc         1 89S       0.046700
     64 H26         15.7530    -1.2740     4.3410 hc         1 89S       0.075700
     65 H27         17.8990    -1.8520     6.4180 hx         1 89S       0.110700
     66 H28         18.1980    -1.0650     4.8630 hx         1 89S       0.110700
     67 H29         17.3770    -3.7950     5.3900 hn         1 89S       0.456467
     68 H30         17.0380    -3.1040     3.9480 hn         1 89S       0.456467
     69 H32         15.6070    -2.2010     7.2320 hc         1 89S       0.046700
     70 H33         15.2930    -3.2080     5.8090 hc         1 89S       0.046700
     71 H34         13.4400    -1.7080     5.1600 hc         1 89S       0.072950
     72 H35         13.1830    -2.3660     6.7850 hc         1 89S       0.072950
     73 H36         10.5850     2.0620     7.3910 hc         1 89S       0.079700
     74 H37          8.8920     1.8050     7.8360 hc         1 89S       0.079700
     75 H38          8.2820     1.0850    10.0730 ha         1 89S       0.131500
     76 H39          8.9090     1.0540    12.4550 ha         1 89S       0.142000
     77 H40         12.3690     1.7110     8.9990 ha         1 89S       0.131500
     78 H41         13.0040     1.6810    11.3800 ha         1 89S       0.142000
     79 H42         13.3060     0.7430    13.2230 h1         1 89S       0.041200
     80 H43         13.0580     2.4920    13.3120 h1         1 89S       0.041200
     81 H44         13.2470    -0.6400    15.2600 ha         1 89S       0.140500
     82 H45         13.5550    -0.6580    17.7060 h4         1 89S       0.028600
     83 H46         12.9720     3.4500    17.9160 h4         1 89S       0.028600
     84 H47         12.6490     3.5940    15.4770 ha         1 89S       0.140500
     85 HAB3        18.5910    -3.2530     4.4490 hn         1 89S       0.456467
@<TRIPOS>BOND
     1    22    23 1
     2    22    19 1
     3    21    20 1
     4    20    19 1
     5    23    16 1
     6    16    14 1
     7    16    17 1
     8    19    18 1
     9    24    25 1
    10    24    12 1
    11    18    17 1
    12    26    25 ar
    13    26    27 ar
    14    13    14 1
    15    13    12 1
    16    25    28 ar
    17    14    15 2
    18    27    30 ar
    19    12    10 1
    20    28    29 ar
    21    30    29 ar
    22    30    31 1
    23    31    32 1
    24    38    37 ar
    25    38    33 ar
    26    10    11 2
    27    10     9 1
    28    37    36 ar
    29    32    33 1
    30    33    34 ar
    31     9     8 1
    32    36    35 ar
    33    34    35 ar
    34     8     7 1
    35     7     6 1
    36     4     5 1
    37     4     3 1
    38     6     5 1
    39     2     3 1
    40     2     1 1
    41     1    39 1
    42     1    40 1
    43     1    41 1
    44     2    42 1
    45     2    43 1
    46     3    44 1
    47     3    45 1
    48     4    46 1
    49     4    47 1
    50     5    48 1
    51     5    49 1
    52     6    50 1
    53     6    51 1
    54     7    52 1
    55     7    53 1
    56     8    54 1
    57     8    55 1
    58     9    56 1
    59    12    57 1
    60    13    58 1
    61    16    59 1
    62    17    60 1
    63    17    61 1
    64    18    62 1
    65    18    63 1
    66    19    64 1
    67    20    65 1
    68    20    66 1
    69    21    67 1
    70    21    68 1
    71    22    69 1
    72    22    70 1
    73    23    71 1
    74    23    72 1
    75    24    73 1
    76    24    74 1
    77    26    75 1
    78    27    76 1
    79    28    77 1
    80    29    78 1
    81    32    79 1
    82    32    80 1
    83    34    81 1
    84    35    82 1
    85    37    83 1
    86    38    84 1
    87    85    21 1
@<TRIPOS>SUBSTRUCTURE
     1 89S         1 TEMP              0 ****  ****    0 ROOT
