@<TRIPOS>MOLECULE
molecule
   41    44     1     0     0
SMALL
bcc


@<TRIPOS>ATOM
      1 C01          0.0000     0.0000     0.0000 ca         1 89U      -0.141000
      2 C02          1.3880     0.0000     0.0000 ca         1 89U      -0.099500
      3 C03          2.0890     0.0000     1.1870 ca         1 89U      -0.135500
      4 C04          1.4000    -0.0000     2.3990 ca         1 89U      -0.010800
      5 C05         -0.0100     0.0010     2.4000 ca         1 89U      -0.158100
      6 C06         -0.7010     0.0010     1.1870 ca         1 89U      -0.069000
      7 C07          2.1300    -0.0030     3.6800 cc         1 89U      -0.021400
      8 C08          1.3980    -0.3050     4.9230 ca         1 89U      -0.010800
      9 C09         -0.0120    -0.3010     4.9220 ca         1 89U      -0.158100
     10 C10         -0.7380     0.0020     3.6780 c          1 89U       0.594300
     11 C11          2.0860    -0.5950     6.1020 ca         1 89U      -0.135500
     12 C12          1.3830    -0.8750     7.2530 ca         1 89U      -0.099500
     13 C13         -0.0050    -0.8700     7.2520 ca         1 89U      -0.141000
     14 C14         -0.7050    -0.5860     6.1000 ca         1 89U      -0.069000
     15 O15         -1.9300     0.2510     3.7070 o          1 89U      -0.533100
     16 C16          3.4680     0.2710     3.7150 cf         1 89U      -0.076200
     17 C17          4.0970     0.6970     4.9670 ca         1 89U      -0.101800
     18 C18          5.3660     0.2150     5.3170 ca         1 89U      -0.089000
     19 C19          5.9550     0.6180     6.4950 ca         1 89U      -0.218000
     20 C20          5.2930     1.5000     7.3390 ca         1 89U       0.129100
     21 C21          4.0300     1.9860     7.0000 ca         1 89U       0.073100
     22 C22          3.4340     1.5930     5.8180 ca         1 89U      -0.100000
     23 O23          3.3880     2.8490     7.8310 oh         1 89U      -0.501100
     24 O24          5.8790     1.8940     8.5000 os         1 89U      -0.311900
     25 C25          7.1730     1.3590     8.7870 c3         1 89U       0.124700
     26 H1          -0.5370    -0.0000    -0.9410 ha         1 89U       0.134500
     27 H2           1.9240    -0.0010    -0.9410 ha         1 89U       0.134000
     28 H3           3.1720    -0.0000     1.1780 ha         1 89U       0.145500
     29 H4          -1.7840     0.0010     1.1780 ha         1 89U       0.153000
     30 H6           3.1690    -0.6010     6.1120 ha         1 89U       0.145500
     31 H7           1.9180    -1.1000     8.1680 ha         1 89U       0.134000
     32 H8          -0.5440    -1.0920     8.1660 ha         1 89U       0.134500
     33 H9          -1.7880    -0.5850     6.1080 ha         1 89U       0.153000
     34 H10          4.0700     0.1430     2.8230 ha         1 89U       0.141000
     35 H12          5.8850    -0.4730     4.6600 ha         1 89U       0.137000
     36 H13          6.9350     0.2450     6.7640 ha         1 89U       0.142000
     37 H14          2.4530     1.9690     5.5540 ha         1 89U       0.161000
     38 H15          3.5030     3.7310     7.5180 ho         1 89U       0.418000
     39 H16          7.8630     1.6410     8.0020 h1         1 89U       0.043033
     40 H17          7.5230     1.7500     9.7340 h1         1 89U       0.043033
     41 H18          7.1120     0.2780     8.8440 h1         1 89U       0.043033
@<TRIPOS>BOND
     1    23    21 1
     2    24    25 1
     3    24    20 1
     4    21    20 ar
     5    21    22 ar
     6    20    19 ar
     7    22    17 ar
     8    19    18 ar
     9    17    18 ar
    10    17    16 1
    11    12    11 ar
    12    12    13 ar
    13    11     8 ar
    14    16     7 2
    15    13    14 ar
    16     8     7 1
    17     8     9 ar
    18     7     4 1
    19    14     9 ar
    20     9    10 1
    21     3     4 ar
    22     3     2 ar
    23     4     5 ar
    24     2     1 ar
    25    10     5 1
    26    10    15 2
    27     5     6 ar
    28     1     6 ar
    29     1    26 1
    30     2    27 1
    31     3    28 1
    32     6    29 1
    33    11    30 1
    34    12    31 1
    35    13    32 1
    36    14    33 1
    37    16    34 1
    38    18    35 1
    39    19    36 1
    40    22    37 1
    41    23    38 1
    42    25    39 1
    43    25    40 1
    44    25    41 1
@<TRIPOS>SUBSTRUCTURE
     1 89U         1 TEMP              0 ****  ****    0 ROOT
