@<TRIPOS>MOLECULE
molecule
   18    17     1     0     0
SMALL
bcc


@<TRIPOS>ATOM
      1 OXT          0.0000     0.0000     0.0000 o          1 89V      -0.835800
      2 C            1.3420     0.0000     0.0000 c          1 89V       0.873600
      3 O            1.9470     0.0000     1.0460 o          1 89V      -0.835800
      4 CA           2.0950    -0.0010    -1.3060 c3         1 89V       0.050100
      5 CB           1.8220    -1.3090    -2.0520 c3         1 89V       0.174800
      6 CG2          2.6820    -1.3640    -3.3160 c3         1 89V      -0.116100
      7 CG1          2.1670    -2.4940    -1.1470 c3         1 89V      -0.116100
      8 O1           0.4400    -1.3710    -2.4120 oh         1 89V      -0.560800
      9 O2           3.4960     0.1160    -1.0480 oh         1 89V      -0.616800
     10 H2           1.7690     0.8360    -1.9120 h1         1 89V       0.025700
     11 H3           2.4860    -0.4880    -3.9240 hc         1 89V       0.033533
     12 H4           3.7290    -1.3850    -3.0400 hc         1 89V       0.033533
     13 H5           2.4380    -2.2560    -3.8800 hc         1 89V       0.033533
     14 H6           2.1850    -3.4030    -1.7350 hc         1 89V       0.033533
     15 H7           3.1400    -2.3340    -0.6990 hc         1 89V       0.033533
     16 H8           1.4200    -2.5820    -0.3680 hc         1 89V       0.033533
     17 H9           0.3090    -2.0660    -3.0360 ho         1 89V       0.367000
     18 H10          3.7280     1.0280    -0.9810 ho         1 89V       0.388000
@<TRIPOS>BOND
     1     6     5 1   
     2     8     5 1   
     3     7     5 1   
     4     5     4 1   
     5     4     9 1   
     6     4     2 1   
     7     2     3 1   
     8     2     1 1   
     9     4    10 1   
    10     6    11 1   
    11     6    12 1   
    12     6    13 1   
    13     7    14 1   
    14     7    15 1   
    15     7    16 1   
    16     8    17 1   
    17     9    18 1   
@<TRIPOS>SUBSTRUCTURE
     1 89V         1 TEMP              0 ****  ****    0 ROOT
