@<TRIPOS>MOLECULE
molecule
   58    59     1     0     0
SMALL
bcc


@<TRIPOS>ATOM
      1 O1           0.0000     0.0000     0.0000 oh         1 89X      -0.360100
      2 N            1.4160     0.0000     0.0000 ns         1 89X      -0.467400
      3 CA           2.0890     0.0000     1.1670 c          1 89X       0.660100
      4 O2           1.4820     0.0000     2.2180 o          1 89X      -0.561100
      5 CB           3.5970     0.0000     1.1680 c3         1 89X       0.107000
      6 N2           4.0840     0.0010     2.5490 ns         1 89X      -0.557900
      7 C3           4.2130    -1.1620     3.2180 c          1 89X       0.665100
      8 O            3.9240    -2.2080     2.6780 o          1 89X      -0.611100
      9 C4           4.7140    -1.1620     4.6390 c3         1 89X       0.063700
     10 C5           6.1170    -0.5520     4.6850 c3         1 89X      -0.091400
     11 C6           6.5770    -0.4370     6.1390 c3         1 89X      -0.073700
     12 C7           8.0250     0.0550     6.1790 c3         1 89X      -0.082600
     13 C8           5.6800     0.5560     6.8810 c3         1 89X      -0.082600
     14 N3           4.7640    -2.5380     5.1400 ns         1 89X      -0.586900
     15 C9           4.6850    -2.7760     6.4640 c          1 89X       0.784100
     16 O4           4.5720    -1.8490     7.2430 o          1 89X      -0.669100
     17 N4           4.7300    -4.0420     6.9250 ns         1 89X      -0.600900
     18 C10          4.6430    -4.3010     8.3650 c3         1 89X       0.179300
     19 C11          4.7170    -5.7850     8.6130 ca         1 89X      -0.119300
     20 C12          3.5590    -6.5410     8.6370 ca         1 89X      -0.111000
     21 C13          3.6270    -7.9020     8.8650 ca         1 89X      -0.131500
     22 C14          4.8520    -8.5080     9.0690 ca         1 89X      -0.120000
     23 C15          6.0100    -7.7530     9.0450 ca         1 89X      -0.131500
     24 C16          5.9430    -6.3930     8.8110 ca         1 89X      -0.111000
     25 CG           4.0980     1.2310     0.4560 ca         1 89X      -0.111300
     26 CD1          4.5250     1.1450    -0.8560 ca         1 89X      -0.119500
     27 CE1          4.9870     2.2730    -1.5070 ca         1 89X      -0.120500
     28 CZ           5.0220     3.4870    -0.8470 ca         1 89X      -0.118000
     29 CE2          4.5950     3.5730     0.4650 ca         1 89X      -0.120500
     30 CD2          4.1280     2.4450     1.1150 ca         1 89X      -0.119500
     31 H1          -0.3140     0.0500    -0.8870 ho         1 89X       0.398000
     32 H2           1.9160    -0.0170    -0.8670 hn         1 89X       0.319500
     33 H3           3.9580    -0.8850     0.6580 h1         1 89X       0.100700
     34 H4           4.2980     0.8660     3.0040 hn         1 89X       0.329500
     35 H5           4.0460    -0.5760     5.2580 h1         1 89X       0.106700
     36 H6           6.0980     0.4320     4.2340 hc         1 89X       0.044700
     37 H7           6.8040    -1.1870     4.1380 hc         1 89X       0.044700
     38 H8           6.5120    -1.4080     6.6160 hc         1 89X       0.074700
     39 H9           8.1080     0.9790     5.6190 hc         1 89X       0.033200
     40 H10          8.3200     0.2290     7.2070 hc         1 89X       0.033200
     41 H11          8.6730    -0.6930     5.7390 hc         1 89X       0.033200
     42 H12          5.8380     0.4590     7.9480 hc         1 89X       0.033200
     43 H13          5.9240     1.5650     6.5700 hc         1 89X       0.033200
     44 H14          4.6420     0.3490     6.6490 hc         1 89X       0.033200
     45 H15          4.8230    -3.3030     4.4970 hn         1 89X       0.329500
     46 H16          4.8080    -4.8060     6.2830 hn         1 89X       0.314500
     47 H17          5.4660    -3.8090     8.8700 h1         1 89X       0.058200
     48 H18          3.7040    -3.9170     8.7450 h1         1 89X       0.058200
     49 H19          2.5990    -6.0660     8.4770 ha         1 89X       0.135500
     50 H20          2.7200    -8.4940     8.8840 ha         1 89X       0.131500
     51 H21          4.9040    -9.5750     9.2500 ha         1 89X       0.130000
     52 H22          6.9700    -8.2290     9.2030 ha         1 89X       0.131500
     53 H23          6.8500    -5.8010     8.7920 ha         1 89X       0.135500
     54 H24          4.4980     0.1930    -1.3730 ha         1 89X       0.134000
     55 H25          5.3220     2.2060    -2.5350 ha         1 89X       0.136500
     56 H26          5.3860     4.3710    -1.3570 ha         1 89X       0.136000
     57 H27          4.6200     4.5250     0.9820 ha         1 89X       0.136500
     58 H28          3.7930     2.5120     2.1430 ha         1 89X       0.134000
@<TRIPOS>BOND
     1    28    27 ar
     2    28    29 ar
     3    27    26 ar
     4    21    20 ar
     5    21    22 ar
     6    29    30 ar
     7    20    19 ar
     8    26    25 ar
     9    22    23 ar
    10    30    25 ar
    11    16    15 2
    12    19    18 1
    13    19    24 ar
    14    25     5 1
    15    18    17 1
    16    23    24 ar
    17    15    17 1
    18    15    14 1
    19     5     6 1
    20     5     3 1
    21     6     7 1
    22     8     7 2
    23     7     9 1
    24     9    14 1
    25     9    10 1
    26     3     4 2
    27     3     2 1
    28     2     1 1
    29    10    11 1
    30    11    12 1
    31    11    13 1
    32     1    31 1
    33     2    32 1
    34     5    33 1
    35     6    34 1
    36     9    35 1
    37    10    36 1
    38    10    37 1
    39    11    38 1
    40    12    39 1
    41    12    40 1
    42    12    41 1
    43    13    42 1
    44    13    43 1
    45    13    44 1
    46    14    45 1
    47    17    46 1
    48    18    47 1
    49    18    48 1
    50    20    49 1
    51    21    50 1
    52    22    51 1
    53    23    52 1
    54    24    53 1
    55    26    54 1
    56    27    55 1
    57    28    56 1
    58    29    57 1
    59    30    58 1
@<TRIPOS>SUBSTRUCTURE
     1 89X         1 TEMP              0 ****  ****    0 ROOT
