@<TRIPOS>MOLECULE
89X
   58    59     1     0     0
SMALL
bcc


@<TRIPOS>ATOM
      1 O1           0.0000     0.0000     0.0000 oh         1 89X      -0.437100
      2 N            1.4160     0.0000     0.0000 ns         1 89X      -0.048400
      3 CA           2.0890     0.0000     1.1670 c          1 89X       0.561100
      4 O2           1.4820     0.0000     2.2180 o          1 89X      -0.611100
      5 CB           3.5970     0.0000     1.1680 c3         1 89X       0.015000
      6 N2           4.0840     0.0010     2.5490 ns         1 89X      -0.159900
      7 C3           4.2130    -1.1620     3.2180 c          1 89X       0.582100
      8 O            3.9240    -2.2080     2.6780 o          1 89X      -0.658100
      9 C4           4.7140    -1.1620     4.6390 c3         1 89X      -0.047300
     10 C5           6.1170    -0.5520     4.6850 c3         1 89X      -0.037400
     11 C6           6.5770    -0.4370     6.1390 c3         1 89X      -0.068700
     12 C7           8.0250     0.0550     6.1790 c3         1 89X       0.005400
     13 C8           5.6800     0.5560     6.8810 c3         1 89X       0.005400
     14 N3           4.7640    -2.5380     5.1400 ns         1 89X      -0.192900
     15 C9           4.6850    -2.7760     6.4640 c          1 89X       0.578100
     16 O4           4.5720    -1.8490     7.2430 o          1 89X      -0.717100
     17 N4           4.7300    -4.0420     6.9250 ns         1 89X      -0.218900
     18 C10          4.6430    -4.3010     8.3650 c3         1 89X       0.128300
     19 C11          4.7170    -5.7850     8.6130 ca         1 89X      -0.126300
     20 C12          3.5590    -6.5410     8.6370 ca         1 89X      -0.084000
     21 C13          3.6270    -7.9020     8.8650 ca         1 89X      -0.103500
     22 C14          4.8520    -8.5080     9.0690 ca         1 89X      -0.094000
     23 C15          6.0100    -7.7530     9.0450 ca         1 89X      -0.103500
     24 C16          5.9430    -6.3930     8.8110 ca         1 89X      -0.084000
     25 CG           4.0980     1.2310     0.4560 ca         1 89X      -0.123300
     26 CD1          4.5250     1.1450    -0.8560 ca         1 89X      -0.093500
     27 CE1          4.9870     2.2730    -1.5070 ca         1 89X      -0.091500
     28 CZ           5.0220     3.4870    -0.8470 ca         1 89X      -0.091000
     29 CE2          4.5950     3.5730     0.4650 ca         1 89X      -0.091500
     30 CD2          4.1280     2.4450     1.1150 ca         1 89X      -0.093500
     31 H1          -0.3140     0.0500    -0.8870 ho         1 89X       0.392000
     32 H2           1.9160    -0.0170    -0.8670 hn         1 89X       0.157500
     33 H3           3.9580    -0.8850     0.6580 h1         1 89X       0.068700
     34 H4           4.2980     0.8660     3.0040 hn         1 89X       0.189500
     35 H5           4.0460    -0.5760     5.2580 h1         1 89X       0.083700
     36 H6           6.0980     0.4320     4.2340 hc         1 89X       0.017200
     37 H7           6.8040    -1.1870     4.1380 hc         1 89X       0.017200
     38 H8           6.5120    -1.4080     6.6160 hc         1 89X       0.056700
     39 H9           8.1080     0.9790     5.6190 hc         1 89X       0.003867
     40 H10          8.3200     0.2290     7.2070 hc         1 89X       0.003867
     41 H11          8.6730    -0.6930     5.7390 hc         1 89X       0.003867
     42 H12          5.8380     0.4590     7.9480 hc         1 89X       0.003867
     43 H13          5.9240     1.5650     6.5700 hc         1 89X       0.003867
     44 H14          4.6420     0.3490     6.6490 hc         1 89X       0.003867
     45 H15          4.8230    -3.3030     4.4970 hn         1 89X       0.190500
     46 H16          4.8080    -4.8060     6.2830 hn         1 89X       0.173500
     47 H17          5.4660    -3.8090     8.8700 h1         1 89X       0.027700
     48 H18          3.7040    -3.9170     8.7450 h1         1 89X       0.027700
     49 H19          2.5990    -6.0660     8.4770 ha         1 89X       0.108500
     50 H20          2.7200    -8.4940     8.8840 ha         1 89X       0.104000
     51 H21          4.9040    -9.5750     9.2500 ha         1 89X       0.102000
     52 H22          6.9700    -8.2290     9.2030 ha         1 89X       0.104000
     53 H23          6.8500    -5.8010     8.7920 ha         1 89X       0.108500
     54 H24          4.4980     0.1930    -1.3730 ha         1 89X       0.110500
     55 H25          5.3220     2.2060    -2.5350 ha         1 89X       0.108000
     56 H26          5.3860     4.3710    -1.3570 ha         1 89X       0.107000
     57 H27          4.6200     4.5250     0.9820 ha         1 89X       0.108000
     58 H28          3.7930     2.5120     2.1430 ha         1 89X       0.110500
@<TRIPOS>BOND
     1     1     2 1   
     2     1    31 1   
     3     2     3 1   
     4     2    32 1   
     5     3     4 2   
     6     3     5 1   
     7     5     6 1   
     8     5    25 1   
     9     5    33 1   
    10     6     7 1   
    11     6    34 1   
    12     7     8 2   
    13     7     9 1   
    14     9    10 1   
    15     9    14 1   
    16     9    35 1   
    17    10    11 1   
    18    10    36 1   
    19    10    37 1   
    20    11    12 1   
    21    11    13 1   
    22    11    38 1   
    23    12    39 1   
    24    12    40 1   
    25    12    41 1   
    26    13    42 1   
    27    13    43 1   
    28    13    44 1   
    29    14    15 1   
    30    14    45 1   
    31    15    16 2   
    32    15    17 1   
    33    17    18 1   
    34    17    46 1   
    35    18    19 1   
    36    18    47 1   
    37    18    48 1   
    38    19    20 ar  
    39    19    24 ar  
    40    20    21 ar  
    41    20    49 1   
    42    21    22 ar  
    43    21    50 1   
    44    22    23 ar  
    45    22    51 1   
    46    23    24 ar  
    47    23    52 1   
    48    24    53 1   
    49    25    26 ar  
    50    25    30 ar  
    51    26    27 ar  
    52    26    54 1   
    53    27    28 ar  
    54    27    55 1   
    55    28    29 ar  
    56    28    56 1   
    57    29    30 ar  
    58    29    57 1   
    59    30    58 1   
@<TRIPOS>SUBSTRUCTURE
     1 89X         1 TEMP              0 ****  ****    0 ROOT
