@<TRIPOS>MOLECULE
molecule
   18    18     1     0     0
SMALL
bcc


@<TRIPOS>ATOM
      1 O10          0.0000     0.0000     0.0000 oh         1 89Y      -0.545800
      2 C09          1.4280     0.0000     0.0000 c3         1 89Y       0.047100
      3 C07          1.9550     0.0000     1.4180 c          1 89Y       0.719600
      4 O08          1.7840     0.8830     2.2230 o          1 89Y      -0.551500
      5 O06          2.6410    -1.1290     1.6480 os         1 89Y      -0.389900
      6 C05          3.0660    -1.7180     0.3840 c3         1 89Y       0.113400
      7 C03          1.9660    -1.3090    -0.6210 c3         1 89Y       0.122800
      8 O04          0.9400    -2.3010    -0.6850 oh         1 89Y      -0.555800
      9 C02          2.5610    -1.0550    -2.0080 c3         1 89Y       0.118400
     10 O01          3.1650    -2.2550    -2.4940 oh         1 89Y      -0.616800
     11 H1          -0.3140     0.8840    -0.0930 ho         1 89Y       0.410000
     12 H2           1.8110     0.8570    -0.5420 h1         1 89Y       0.065700
     13 H3           3.1160    -2.7970     0.4690 h1         1 89Y       0.078200
     14 H4           4.0230    -1.3110     0.0810 h1         1 89Y       0.078200
     15 H5           1.3270    -3.1440    -0.8540 ho         1 89Y       0.416000
     16 H6           1.7760    -0.7450    -2.6870 h1         1 89Y       0.038200
     17 H7           3.3100    -0.2750    -1.9420 h1         1 89Y       0.038200
     18 H8           3.4510    -2.1260    -3.3830 ho         1 89Y       0.417000
@<TRIPOS>BOND
     1    10     9 1   
     2     9     7 1   
     3     7     6 1   
     4     7     8 1   
     5     7     2 1   
     6     6     5 1   
     7     2     1 1   
     8     2     3 1   
     9     5     3 1   
    10     3     4 2   
    11     1    11 1   
    12     2    12 1   
    13     6    13 1   
    14     6    14 1   
    15     8    15 1   
    16     9    16 1   
    17     9    17 1   
    18    10    18 1   
@<TRIPOS>SUBSTRUCTURE
     1 89Y         1 TEMP              0 ****  ****    0 ROOT
