@<TRIPOS>MOLECULE
8A0
   57    60     1     0     0
SMALL
bcc


@<TRIPOS>ATOM
      1 C5           0.0000     0.0000     0.0000 cc         1 8A0      -0.391600
      2 C6           1.4130     0.0000     0.0000 cc         1 8A0       0.566600
      3 C8          -0.4330     0.6070    -3.6990 cg         1 8A0       0.092500
      4 C2           1.4740     0.2750    -2.2970 c2         1 8A0      -0.112900
      5 N7           2.2220     0.5560    -3.4130 nz         1 8A0       0.231600
      6 C16         -3.2070     0.6960    -1.2020 ca         1 8A0      -0.073000
      7 F48         -5.8000     0.0680    -1.8430 f          1 8A0      -0.201967
      8 F46         -6.4120     2.2660    -1.7260 f          1 8A0      -0.201967
      9 F47         -6.0690     1.0730     0.1910 f          1 8A0      -0.201967
     10 C17         -4.1930     1.6640    -1.1370 ca         1 8A0      -0.181300
     11 C18         -3.8480     2.9990    -1.0780 ca         1 8A0      -0.039000
     12 C19         -2.5050     3.3710    -1.0860 cp         1 8A0      -0.002000
     13 C32         -2.1300     4.8060    -1.0220 cp         1 8A0      -0.082000
     14 C43         -1.1820     5.2400    -0.0980 ca         1 8A0      -0.085000
     15 C42         -0.8320     6.5750    -0.0490 ca         1 8A0      -0.089000
     16 C41         -1.4200     7.4790    -0.9130 ca         1 8A0      -0.074000
     17 C40         -2.3620     7.0540    -1.8330 ca         1 8A0      -0.104000
     18 C39         -2.7190     5.7220    -1.8920 ca         1 8A0      -0.076300
     19 C50         -3.7410     5.2580    -2.8990 c3         1 8A0       0.040200
     20 C20         -1.5170     2.3920    -1.1510 ca         1 8A0      -0.073000
     21 C15         -1.8730     1.0590    -1.2040 ca         1 8A0      -0.131300
     22 C4          -0.8040    -0.0020    -1.2740 c3         1 8A0       0.211800
     23 C13         -1.4510    -1.3740    -1.4750 c3         1 8A0      -0.060700
     24 C34         -2.1640    -1.4090    -2.8290 c3         1 8A0      -0.077100
     25 C14         -0.3720    -2.4570    -1.4390 c3         1 8A0      -0.077100
     26 C3           0.1310     0.2940    -2.4200 ce         1 8A0       0.151100
     27 N9          -0.8650     0.8480    -4.7220 n1         1 8A0      -0.232800
     28 C10         -0.4170    -0.0040     1.2750 cd         1 8A0      -0.101600
     29 N51          0.6820    -0.0020     2.0650 na         1 8A0       0.464400
     30 N11          1.8150     0.0000     1.2370 nd         1 8A0      -0.598800
     31 O1           2.1330     0.0010    -1.1540 os         1 8A0      -0.263400
     32 H1           1.5110     0.6710    -4.1080 hn         1 8A0       0.228467
     33 H2           3.0950     0.1400    -3.6730 hn         1 8A0       0.228467
     34 H3          -2.7080    -0.4660     1.2660 hc         1 8A0       0.029700
     35 H4          -2.0300    -0.3080     2.7680 hc         1 8A0       0.029700
     36 H5          -2.3770     0.9170     1.9240 hc         1 8A0       0.029700
     37 H6          -3.3810    -0.3700    -1.2880 ha         1 8A0       0.149000
     38 H7          -4.5950     3.7700    -1.2200 ha         1 8A0       0.152000
     39 H8          -0.8310     4.5000     0.6110 ha         1 8A0       0.104000
     40 H9          -0.2040     6.9650     0.7440 ha         1 8A0       0.112000
     41 H10         -1.5160     8.5430    -0.7310 ha         1 8A0       0.117000
     42 H11         -2.8230     7.6600    -2.6030 ha         1 8A0       0.119000
     43 H12         -3.9740     5.9200    -3.7240 hc         1 8A0       0.018700
     44 H13         -4.5590     5.0140    -2.2310 hc         1 8A0       0.018700
     45 H14         -3.4900     4.2510    -3.2110 hc         1 8A0       0.018700
     46 H15         -0.4810     2.6950    -1.2380 ha         1 8A0       0.104000
     47 H16         -2.3410    -1.8220    -1.0500 hc         1 8A0       0.088700
     48 H17         -2.7510    -2.2930    -2.6140 hc         1 8A0       0.027867
     49 H18         -1.7010    -1.9250    -3.6610 hc         1 8A0       0.027867
     50 H19         -2.8890    -0.6130    -2.9430 hc         1 8A0       0.027867
     51 H20         -0.8840    -3.3910    -1.6400 hc         1 8A0       0.027867
     52 H21          0.5960    -2.3350    -1.9100 hc         1 8A0       0.027867
     53 H22         -0.3720    -2.6370    -0.3710 hc         1 8A0       0.027867
     54 H23          0.6850    -0.4010     2.9830 hn         1 8A0       0.168700
     55 C12         -1.8480    -0.0110     1.7430 c3         1 8A0       0.023200
     56 H73          2.2360     1.5420    -3.5830 hn         1 8A0       0.228467
     57 C33         -5.6440     1.2610    -1.1290 c3         1 8A0       0.642200
@<TRIPOS>BOND
     1     1     2 1   
     2     1    22 1   
     3     1    28 2   
     4     2    30 2   
     5     2    31 1   
     6     3    26 1   
     7     3    27 3   
     8     4     5 1   
     9     4    26 2   
    10     4    31 1   
    11     5    32 1   
    12     5    33 1   
    13     5    56 1   
    14     6    10 ar  
    15     6    21 ar  
    16     6    37 1   
    17     7    57 1   
    18     8    57 1   
    19     9    57 1   
    20    10    11 ar  
    21    10    57 1   
    22    11    12 ar  
    23    11    38 1   
    24    12    13 1   
    25    12    20 ar  
    26    13    14 ar  
    27    13    18 ar  
    28    14    15 ar  
    29    14    39 1   
    30    15    16 ar  
    31    15    40 1   
    32    16    17 ar  
    33    16    41 1   
    34    17    18 ar  
    35    17    42 1   
    36    18    19 1   
    37    19    43 1   
    38    19    44 1   
    39    19    45 1   
    40    20    21 ar  
    41    20    46 1   
    42    21    22 1   
    43    22    23 1   
    44    22    26 1   
    45    23    24 1   
    46    23    25 1   
    47    23    47 1   
    48    24    48 1   
    49    24    49 1   
    50    24    50 1   
    51    25    51 1   
    52    25    52 1   
    53    25    53 1   
    54    28    29 1   
    55    28    55 1   
    56    29    30 1   
    57    29    54 1   
    58    34    55 1   
    59    35    55 1   
    60    36    55 1   
@<TRIPOS>SUBSTRUCTURE
     1 8A0         1 TEMP              0 ****  ****    0 ROOT
