@<TRIPOS>MOLECULE
molecule
   57    60     1     0     0
SMALL
bcc


@<TRIPOS>ATOM
      1 C5           0.0000     0.0000     0.0000 cc         1 8A0      -0.364600
      2 C6           1.4130     0.0000     0.0000 cd         1 8A0       0.549600
      3 C8          -0.4330     0.6070    -3.6990 cg         1 8A0       0.127500
      4 C2           1.4740     0.2750    -2.2970 c2         1 8A0       0.154100
      5 N7           2.2220     0.5560    -3.4130 nz         1 8A0      -0.688400
      6 C16         -3.2070     0.6960    -1.2020 ca         1 8A0      -0.089000
      7 F48         -5.8000     0.0680    -1.8430 f          1 8A0      -0.216300
      8 F46         -6.4120     2.2660    -1.7260 f          1 8A0      -0.216300
      9 F47         -6.0690     1.0730     0.1910 f          1 8A0      -0.216300
     10 C17         -4.1930     1.6640    -1.1370 ca         1 8A0      -0.166300
     11 C18         -3.8480     2.9990    -1.0780 ca         1 8A0      -0.065000
     12 C19         -2.5050     3.3710    -1.0860 cp         1 8A0      -0.018000
     13 C32         -2.1300     4.8060    -1.0220 cp         1 8A0      -0.081000
     14 C43         -1.1820     5.2400    -0.0980 ca         1 8A0      -0.109000
     15 C42         -0.8320     6.5750    -0.0490 ca         1 8A0      -0.120000
     16 C41         -1.4200     7.4790    -0.9130 ca         1 8A0      -0.105000
     17 C40         -2.3620     7.0540    -1.8330 ca         1 8A0      -0.130000
     18 C39         -2.7190     5.7220    -1.8920 ca         1 8A0      -0.071300
     19 C50         -3.7410     5.2580    -2.8990 c3         1 8A0      -0.059800
     20 C20         -1.5170     2.3920    -1.1510 ca         1 8A0      -0.094000
     21 C15         -1.8730     1.0590    -1.2040 ca         1 8A0      -0.115300
     22 C4          -0.8040    -0.0020    -1.2740 c3         1 8A0       0.178800
     23 C13         -1.4510    -1.3740    -1.4750 c3         1 8A0      -0.077700
     24 C34         -2.1640    -1.4090    -2.8290 c3         1 8A0      -0.145600
     25 C14         -0.3720    -2.4570    -1.4390 c3         1 8A0      -0.145600
     26 C3           0.1310     0.2940    -2.4200 ce         1 8A0       0.047100
     27 N9          -0.8650     0.8480    -4.7220 n1         1 8A0      -0.248800
     28 C10         -0.4170    -0.0040     1.2750 cd         1 8A0       0.055400
     29 N51          0.6820    -0.0020     2.0650 na         1 8A0      -0.003600
     30 N11          1.8150     0.0000     1.2370 nc         1 8A0      -0.456800
     31 O1           2.1330     0.0010    -1.1540 os         1 8A0      -0.292400
     32 H1           1.5110     0.6710    -4.1080 hn         1 8A0       0.474133
     33 H2           3.0950     0.1400    -3.6730 hn         1 8A0       0.474133
     34 H3          -2.7080    -0.4660     1.2660 hc         1 8A0       0.071033
     35 H4          -2.0300    -0.3080     2.7680 hc         1 8A0       0.071033
     36 H5          -2.3770     0.9170     1.9240 hc         1 8A0       0.071033
     37 H6          -3.3810    -0.3700    -1.2880 ha         1 8A0       0.161000
     38 H7          -4.5950     3.7700    -1.2200 ha         1 8A0       0.174000
     39 H8          -0.8310     4.5000     0.6110 ha         1 8A0       0.132000
     40 H9          -0.2040     6.9650     0.7440 ha         1 8A0       0.142000
     41 H10         -1.5160     8.5430    -0.7310 ha         1 8A0       0.147000
     42 H11         -2.8230     7.6600    -2.6030 ha         1 8A0       0.145000
     43 H12         -3.9740     5.9200    -3.7240 hc         1 8A0       0.051033
     44 H13         -4.5590     5.0140    -2.2310 hc         1 8A0       0.051033
     45 H14         -3.4900     4.2510    -3.2110 hc         1 8A0       0.051033
     46 H15         -0.4810     2.6950    -1.2380 ha         1 8A0       0.130000
     47 H16         -2.3410    -1.8220    -1.0500 hc         1 8A0       0.108700
     48 H17         -2.7510    -2.2930    -2.6140 hc         1 8A0       0.053033
     49 H18         -1.7010    -1.9250    -3.6610 hc         1 8A0       0.053033
     50 H19         -2.8890    -0.6130    -2.9430 hc         1 8A0       0.053033
     51 H20         -0.8840    -3.3910    -1.6400 hc         1 8A0       0.053033
     52 H21          0.5960    -2.3350    -1.9100 hc         1 8A0       0.053033
     53 H22         -0.3720    -2.6370    -0.3710 hc         1 8A0       0.053033
     54 H23          0.6850    -0.4010     2.9830 hn         1 8A0       0.350700
     55 C12         -1.8480    -0.0110     1.7430 c3         1 8A0      -0.095800
     56 H73          2.2360     1.5420    -3.5830 hn         1 8A0       0.474133
     57 C33         -5.6440     1.2610    -1.1290 c3         1 8A0       0.677200
@<TRIPOS>BOND
     1    15    16 ar
     2    15    14 ar
     3    16    17 ar
     4    29    30 1
     5    29    28 1
     6    14    13 ar
     7    30     2 2
     8    17    18 ar
     9    55    28 1
    10    28     1 2
    11    13    18 ar
    12    13    12 1
    13    18    19 1
    14     2     1 1
    15     2    31 1
    16     1    22 1
    17    20    12 ar
    18    20    21 ar
    19    12    11 ar
    20    31     4 1
    21    22    21 1
    22    22    23 1
    23    22    26 1
    24    21     6 ar
    25    11    10 ar
    26    25    23 1
    27     4    26 2
    28     4     5 1
    29    24    23 1
    30    26     3 1
    31     6    10 ar
    32    10    57 1
    33     8    57 1
    34     3    27 3
    35    57     9 1
    36    57     7 1
    37     5    32 1
    38     5    33 1
    39    55    34 1
    40    55    35 1
    41    55    36 1
    42     6    37 1
    43    11    38 1
    44    14    39 1
    45    15    40 1
    46    16    41 1
    47    17    42 1
    48    19    43 1
    49    19    44 1
    50    19    45 1
    51    20    46 1
    52    23    47 1
    53    24    48 1
    54    24    49 1
    55    24    50 1
    56    25    51 1
    57    25    52 1
    58    25    53 1
    59    29    54 1
    60    56     5 1
@<TRIPOS>SUBSTRUCTURE
     1 8A0         1 TEMP              0 ****  ****    0 ROOT
