@<TRIPOS>MOLECULE
molecule
   15    14     1     0     0
SMALL
bcc


@<TRIPOS>ATOM
      1 O            0.0000     0.0000     0.0000 o          1 8A1      -0.838300
      2 C            1.2080     0.0000     0.0000 c          1 8A1       0.868600
      3 OXT          1.8790     0.0050    -1.1610 o          1 8A1      -0.838300
      4 CA           1.9610     0.0000     1.3060 c3         1 8A1       0.056800
      5 CB           1.0830     0.6090     2.4010 c3         1 8A1       0.123400
      6 O1           1.7970     0.6090     3.6390 oh         1 8A1      -0.618800
      7 O2           3.1550     0.7720     1.1670 oh         1 8A1      -0.604800
      8 C3           2.3240    -1.4370     1.6850 c3         1 8A1      -0.059100
      9 H2           0.8260     1.6270     2.1330 h1         1 8A1       0.024700
     10 H3           0.1780     0.0230     2.5060 h1         1 8A1       0.024700
     11 H4           1.3090     1.0930     4.2840 ho         1 8A1       0.370000
     12 H5           2.9690     1.5530     0.6720 ho         1 8A1       0.399000
     13 H6           2.8480    -1.9070     0.8610 hc         1 8A1       0.031367
     14 H7           1.4200    -1.9930     1.9010 hc         1 8A1       0.031367
     15 H8           2.9620    -1.4300     2.5610 hc         1 8A1       0.031367
@<TRIPOS>BOND
     1     1     2 1
     2     3     2 1
     3     2     4 1
     4     7     4 1
     5     4     8 1
     6     4     5 1
     7     5     6 1
     8     5     9 1
     9     5    10 1
    10     6    11 1
    11     7    12 1
    12     8    13 1
    13     8    14 1
    14     8    15 1
@<TRIPOS>SUBSTRUCTURE
     1 8A1         1 TEMP              0 ****  ****    0 ROOT
