@<TRIPOS>MOLECULE
molecule
   68    71     1     0     0
SMALL
bcc


@<TRIPOS>ATOM
      1 F67          0.0000     0.0000     0.0000 f          1 8A3      -0.219300
      2 C56          1.3990     0.0000     0.0000 c3         1 8A3       0.586900
      3 F64          1.8660     0.0000     1.3190 f          1 8A3      -0.219300
      4 F65          1.8650    -1.1420    -0.6610 f          1 8A3      -0.219300
      5 C54          1.9080     1.2500    -0.7210 c3         1 8A3      -0.086200
      6 N51          1.4210     2.4450    -0.0300 n3         1 8A3      -0.748500
      7 C55          0.0920     2.9800    -0.3400 c3         1 8A3       0.218100
      8 S44          2.3710     3.1930     1.1010 sy         1 8A3       1.266200
      9 O52          1.4900     3.9130     1.9530 o          1 8A3      -0.576300
     10 O53          3.2780     2.2090     1.5770 o          1 8A3      -0.576300
     11 C41          3.3410     4.3970     0.2550 ca         1 8A3      -0.287500
     12 C40          2.8610     5.6850     0.1050 ca         1 8A3      -0.001500
     13 C39          3.6160     6.6330    -0.5570 ca         1 8A3      -0.143500
     14 C42          4.5800     4.0510    -0.2500 ca         1 8A3      -0.001500
     15 C43          5.3440     4.9900    -0.9130 ca         1 8A3      -0.143500
     16 C32          4.8640     6.2890    -1.0730 cp         1 8A3      -0.012000
     17 C19          5.6810     7.3030    -1.7840 cp         1 8A3      -0.035000
     18 C18          6.9310     6.9610    -2.2960 ca         1 8A3      -0.054000
     19 C17          7.6860     7.9080    -2.9580 ca         1 8A3      -0.180300
     20 C33          9.0370     7.5380    -3.5130 c3         1 8A3       0.676200
     21 F49          9.3040     6.1940    -3.2340 f          1 8A3      -0.212300
     22 F48          9.0430     7.7380    -4.8970 f          1 8A3      -0.212300
     23 F47         10.0190     8.3400    -2.9210 f          1 8A3      -0.212300
     24 C16          7.2040     9.1950    -3.1140 ca         1 8A3      -0.083000
     25 C20          5.1970     8.6000    -1.9490 ca         1 8A3      -0.084000
     26 C15          5.9640     9.5400    -2.6070 ca         1 8A3      -0.101300
     27 C4           5.4430    10.9430    -2.7850 c3         1 8A3       0.141800
     28 C13          6.4060    11.7430    -3.6640 c3         1 8A3      -0.027700
     29 C34          6.4380    11.1370    -5.0690 c3         1 8A3      -0.127600
     30 C14          5.9330    13.1970    -3.7480 c3         1 8A3      -0.127600
     31 C3           4.0800    10.9020    -3.4290 ce         1 8A3       0.039100
     32 C8           3.8980    10.0850    -4.5910 cg         1 8A3       0.124500
     33 N9           3.7440     9.4510    -5.5200 n1         1 8A3      -0.252800
     34 C2           3.0240    11.6000    -2.9620 c2         1 8A3       0.142100
     35 N7           1.8350    11.4860    -3.6360 nz         1 8A3      -0.711400
     36 C5           5.3080    11.6100    -1.4400 cd         1 8A3      -0.380600
     37 C10          6.1850    11.6820    -0.4280 cc         1 8A3       0.017400
     38 C12          7.5670    11.0820    -0.4050 c3         1 8A3      -0.054800
     39 N63          5.6050    12.3900     0.5680 na         1 8A3      -0.016600
     40 N11          4.3200    12.7650     0.1460 nc         1 8A3      -0.441800
     41 C6           4.1370    12.3010    -1.0560 cd         1 8A3       0.544600
     42 O1           3.0560    12.4000    -1.8780 os         1 8A3      -0.296400
     43 H1           2.9700     1.3670    -0.5390 h1         1 8A3       0.182200
     44 H2           1.6830     2.1210    -0.1190 h1         1 8A3       0.182200
     45 H3          -0.3150     2.7870    -1.3250 h1         1 8A3       0.078033
     46 H4          -0.2650     2.3220     0.4430 h1         1 8A3       0.078033
     47 H5          -0.1120     4.0140    -0.0870 h1         1 8A3       0.078033
     48 H6           1.7880     5.8040     0.0100 ha         1 8A3       0.153000
     49 H7           3.3580     7.5510    -1.0700 ha         1 8A3       0.139000
     50 H8           4.9440     3.0380    -0.3710 ha         1 8A3       0.153000
     51 H9           6.1620     4.7000    -1.5620 ha         1 8A3       0.139000
     52 H10          7.3430     5.9730    -2.1290 ha         1 8A3       0.172000
     53 H11          7.8460     9.7290    -3.8040 ha         1 8A3       0.168000
     54 H12          4.1710     8.8740    -1.7350 ha         1 8A3       0.133000
     55 H13          7.4040    11.4710    -3.3400 hc         1 8A3       0.090700
     56 H14          5.7280    11.4940    -5.8040 hc         1 8A3       0.046867
     57 H15          7.4070    11.4230    -5.4600 hc         1 8A3       0.046867
     58 H16          6.5180    10.0820    -4.8350 hc         1 8A3       0.046867
     59 H17          6.2840    14.0650    -4.2920 hc         1 8A3       0.046867
     60 H18          5.8740    13.5780    -2.7360 hc         1 8A3       0.046867
     61 H19          4.8750    13.4330    -3.7610 hc         1 8A3       0.046867
     62 H20          1.1270    11.8800    -3.0480 hn         1 8A3       0.488467
     63 H21          1.6370    10.8350    -4.3700 hn         1 8A3       0.488467
     64 H22          7.4780    10.0440    -0.1060 hc         1 8A3       0.075700
     65 H23          8.4260    11.6130    -0.0130 hc         1 8A3       0.075700
     66 H24          7.6170    11.0330    -1.4860 hc         1 8A3       0.075700
     67 H25          6.0440    12.5550     1.4530 hn         1 8A3       0.365700
     68 H73          2.1100    11.9350    -4.4870 hn         1 8A3       0.488467
@<TRIPOS>BOND
     1     9     8 2   
     2     1     2 1   
     3     7     6 1   
     4     6     8 1   
     5     6     5 1   
     6     8    10 2   
     7     8    11 1   
     8     4     2 1   
     9    14    11 ar  
    10    14    15 ar  
    11     2     5 1   
    12     2     3 1   
    13    11    12 ar  
    14    39    40 1   
    15    39    37 1   
    16    15    16 ar  
    17    38    37 1   
    18    40    41 2   
    19    37    36 2   
    20    12    13 ar  
    21    16    13 ar  
    22    16    17 1   
    23    41    36 1   
    24    41    42 1   
    25    36    27 1   
    26    25    17 ar  
    27    25    26 ar  
    28    17    18 ar  
    29    42    34 1   
    30    30    28 1   
    31    27    26 1   
    32    27    28 1   
    33    27    31 1   
    34    26    24 ar  
    35    18    19 ar  
    36    29    28 1   
    37    34    31 2   
    38    34    35 1   
    39    31    32 1   
    40    24    19 ar  
    41    19    20 1   
    42    22    20 1   
    43    32    33 3   
    44    20    21 1   
    45    20    23 1   
    46     5    43 1   
    47     5    44 1   
    48     7    45 1   
    49     7    46 1   
    50     7    47 1   
    51    12    48 1   
    52    13    49 1   
    53    14    50 1   
    54    15    51 1   
    55    18    52 1   
    56    24    53 1   
    57    25    54 1   
    58    28    55 1   
    59    29    56 1   
    60    29    57 1   
    61    29    58 1   
    62    30    59 1   
    63    30    60 1   
    64    30    61 1   
    65    35    62 1   
    66    35    63 1   
    67    38    64 1   
    68    38    65 1   
    69    38    66 1   
    70    39    67 1   
    71    68    35 1   
@<TRIPOS>SUBSTRUCTURE
     1 8A3         1 TEMP              0 ****  ****    0 ROOT
