@<TRIPOS>MOLECULE
8A3
   68    71     1     0     0
SMALL
bcc


@<TRIPOS>ATOM
      1 F67          0.0000     0.0000     0.0000 f          1 8A3      -0.202967
      2 C56          1.3990     0.0000     0.0000 c3         1 8A3       0.529900
      3 F64          1.8660     0.0000     1.3190 f          1 8A3      -0.202967
      4 F65          1.8650    -1.1420    -0.6610 f          1 8A3      -0.202967
      5 C54          1.9080     1.2500    -0.7210 c3         1 8A3      -0.090200
      6 N51          1.4210     2.4450    -0.0300 n3         1 8A3      -0.253500
      7 C55          0.0920     2.9800    -0.3400 c3         1 8A3       0.217100
      8 S44          2.3710     3.1930     1.1010 sy         1 8A3       0.935200
      9 O52          1.4900     3.9130     1.9530 o          1 8A3      -0.543300
     10 O53          3.2780     2.2090     1.5770 o          1 8A3      -0.543300
     11 C41          3.3410     4.3970     0.2550 ca         1 8A3      -0.158500
     12 C40          2.8610     5.6850     0.1050 ca         1 8A3       0.046500
     13 C39          3.6160     6.6330    -0.5570 ca         1 8A3      -0.134500
     14 C42          4.5800     4.0510    -0.2500 ca         1 8A3       0.046500
     15 C43          5.3440     4.9900    -0.9130 ca         1 8A3      -0.134500
     16 C32          4.8640     6.2890    -1.0730 cp         1 8A3      -0.016000
     17 C19          5.6810     7.3030    -1.7840 cp         1 8A3      -0.025000
     18 C18          6.9310     6.9610    -2.2960 ca         1 8A3      -0.020000
     19 C17          7.6860     7.9080    -2.9580 ca         1 8A3      -0.202300
     20 C33          9.0370     7.5380    -3.5130 c3         1 8A3       0.642200
     21 F49          9.3040     6.1940    -3.2340 f          1 8A3      -0.198300
     22 F48          9.0430     7.7380    -4.8970 f          1 8A3      -0.198300
     23 F47         10.0190     8.3400    -2.9210 f          1 8A3      -0.198300
     24 C16          7.2040     9.1950    -3.1140 ca         1 8A3      -0.056000
     25 C20          5.1970     8.6000    -1.9490 ca         1 8A3      -0.066000
     26 C15          5.9640     9.5400    -2.6070 ca         1 8A3      -0.111300
     27 C4           5.4430    10.9430    -2.7850 c3         1 8A3       0.172800
     28 C13          6.4060    11.7430    -3.6640 c3         1 8A3      -0.008700
     29 C34          6.4380    11.1370    -5.0690 c3         1 8A3      -0.053100
     30 C14          5.9330    13.1970    -3.7480 c3         1 8A3      -0.053100
     31 C3           4.0800    10.9020    -3.4290 ce         1 8A3       0.129100
     32 C8           3.8980    10.0850    -4.5910 cg         1 8A3       0.082500
     33 N9           3.7440     9.4510    -5.5200 n1         1 8A3      -0.232800
     34 C2           3.0240    11.6000    -2.9620 c2         1 8A3      -0.108900
     35 N7           1.8350    11.4860    -3.6360 nz         1 8A3       0.211600
     36 C5           5.3080    11.6100    -1.4400 cc         1 8A3      -0.400600
     37 C10          6.1850    11.6820    -0.4280 cd         1 8A3      -0.158600
     38 C12          7.5670    11.0820    -0.4050 c3         1 8A3       0.046200
     39 N63          5.6050    12.3900     0.5680 na         1 8A3       0.486400
     40 N11          4.3200    12.7650     0.1460 nd         1 8A3      -0.595800
     41 C6           4.1370    12.3010    -1.0560 cc         1 8A3       0.560600
     42 O1           3.0560    12.4000    -1.8780 os         1 8A3      -0.258400
     43 H1           2.9700     1.3670    -0.5390 h1         1 8A3       0.069700
     44 H2           1.6830     2.1210    -0.1190 h1         1 8A3       0.069700
     45 H3          -0.3150     2.7870    -1.3250 h1         1 8A3       0.037700
     46 H4          -0.2650     2.3220     0.4430 h1         1 8A3       0.037700
     47 H5          -0.1120     4.0140    -0.0870 h1         1 8A3       0.037700
     48 H6           1.7880     5.8040     0.0100 ha         1 8A3       0.119500
     49 H7           3.3580     7.5510    -1.0700 ha         1 8A3       0.116500
     50 H8           4.9440     3.0380    -0.3710 ha         1 8A3       0.119500
     51 H9           6.1620     4.7000    -1.5620 ha         1 8A3       0.116500
     52 H10          7.3430     5.9730    -2.1290 ha         1 8A3       0.144000
     53 H11          7.8460     9.7290    -3.8040 ha         1 8A3       0.151000
     54 H12          4.1710     8.8740    -1.7350 ha         1 8A3       0.107000
     55 H13          7.4040    11.4710    -3.3400 hc         1 8A3       0.069700
     56 H14          5.7280    11.4940    -5.8040 hc         1 8A3       0.019200
     57 H15          7.4070    11.4230    -5.4600 hc         1 8A3       0.019200
     58 H16          6.5180    10.0820    -4.8350 hc         1 8A3       0.019200
     59 H17          6.2840    14.0650    -4.2920 hc         1 8A3       0.019200
     60 H18          5.8740    13.5780    -2.7360 hc         1 8A3       0.019200
     61 H19          4.8750    13.4330    -3.7610 hc         1 8A3       0.019200
     62 H20          1.1270    11.8800    -3.0480 hn         1 8A3       0.240133
     63 H21          1.6370    10.8350    -4.3700 hn         1 8A3       0.240133
     64 H22          7.4780    10.0440    -0.1060 hc         1 8A3       0.038367
     65 H23          8.4260    11.6130    -0.0130 hc         1 8A3       0.038367
     66 H24          7.6170    11.0330    -1.4860 hc         1 8A3       0.038367
     67 H25          6.0440    12.5550     1.4530 hn         1 8A3       0.174700
     68 H73          2.1100    11.9350    -4.4870 hn         1 8A3       0.240133
@<TRIPOS>BOND
     1     1     2 1   
     2     2     3 1   
     3     2     4 1   
     4     2     5 1   
     5     5     6 1   
     6     5    43 1   
     7     5    44 1   
     8     6     7 1   
     9     6     8 1   
    10     7    45 1   
    11     7    46 1   
    12     7    47 1   
    13     8     9 2   
    14     8    10 2   
    15     8    11 1   
    16    11    12 ar  
    17    11    14 ar  
    18    12    13 ar  
    19    12    48 1   
    20    13    16 ar  
    21    13    49 1   
    22    14    15 ar  
    23    14    50 1   
    24    15    16 ar  
    25    15    51 1   
    26    16    17 1   
    27    17    18 ar  
    28    17    25 ar  
    29    18    19 ar  
    30    18    52 1   
    31    19    20 1   
    32    19    24 ar  
    33    20    21 1   
    34    20    22 1   
    35    20    23 1   
    36    24    26 ar  
    37    24    53 1   
    38    25    26 ar  
    39    25    54 1   
    40    26    27 1   
    41    27    28 1   
    42    27    31 1   
    43    27    36 1   
    44    28    29 1   
    45    28    30 1   
    46    28    55 1   
    47    29    56 1   
    48    29    57 1   
    49    29    58 1   
    50    30    59 1   
    51    30    60 1   
    52    30    61 1   
    53    31    32 1   
    54    31    34 2   
    55    32    33 3   
    56    34    35 1   
    57    34    42 1   
    58    35    62 1   
    59    35    63 1   
    60    35    68 1   
    61    36    37 2   
    62    36    41 1   
    63    37    38 1   
    64    37    39 1   
    65    38    64 1   
    66    38    65 1   
    67    38    66 1   
    68    39    40 1   
    69    39    67 1   
    70    40    41 2   
    71    41    42 1   
@<TRIPOS>SUBSTRUCTURE
     1 8A3         1 TEMP              0 ****  ****    0 ROOT
