@<TRIPOS>MOLECULE
molecule
   65    70     1     0     0
SMALL
bcc


@<TRIPOS>ATOM
      1 C7           0.0000     0.0000     0.0000 ca         1 8A4      -0.092000
      2 C16          3.5620     2.0850     6.1370 ca         1 8A4      -0.099000
      3 C20          5.6030     2.0550     4.8820 ca         1 8A4      -0.099000
      4 C35         -2.9480    -2.3550     0.7450 ca         1 8A4      -0.099500
      5 C40         -2.9010    -0.8350    -1.1050 ca         1 8A4      -0.099500
      6 C6           1.3610     0.0000     0.0000 ca         1 8A4      -0.179300
      7 C17          3.8140     3.3860     6.5240 ca         1 8A4      -0.145000
      8 C19          5.8650     3.3550     5.2700 ca         1 8A4      -0.145000
      9 C36         -3.3880    -3.3630    -0.0920 ca         1 8A4      -0.128000
     10 C39         -3.3390    -1.8420    -1.9440 ca         1 8A4      -0.128000
     11 C23          6.1840     7.2980     6.7130 cc         1 8A4      -0.346300
     12 C9          -0.0770     0.0130     2.3940 ca         1 8A4      -0.075000
     13 C24          4.9880     7.3070     7.4400 cc         1 8A4       0.339200
     14 C29         -1.9530     2.3510     0.1850 cd         1 8A4       0.334200
     15 C22          6.3080     6.0830     6.1320 cd         1 8A4      -0.108300
     16 C31         -4.0070     2.9950     0.0330 cc         1 8A4       0.404400
     17 C10          1.3250     0.0010     2.4320 ca         1 8A4      -0.181300
     18 C15          4.4560     1.4190     5.3200 ca         1 8A4      -0.097300
     19 C34         -2.7040    -1.0910     0.2400 ca         1 8A4      -0.085300
     20 C8          -0.7190     0.0060     1.1930 ca         1 8A4      -0.116300
     21 C13          3.3900    -0.0070     3.6200 ca         1 8A4      -0.198600
     22 C5           2.0580     0.0000     1.2200 ca         1 8A4       0.472600
     23 C18          4.9690     4.0260     6.0910 ca         1 8A4       0.039800
     24 C37         -3.5830    -3.1070    -1.4380 ca         1 8A4       0.033400
     25 C11          2.0260     0.0070     3.6570 ca         1 8A4       0.100400
     26 C28         -2.7140     1.3370     0.6400 cc         1 8A4      -0.289900
     27 C3           4.0540    -0.0240     2.3890 ca         1 8A4       0.686600
     28 C33         -5.2010     0.9730     0.9280 c3         1 8A4       0.024600
     29 C1           6.0390    -0.0540     1.0860 c3         1 8A4       0.135700
     30 C14          4.1790    -0.0040     4.9040 c3         1 8A4       0.017200
     31 C26         -2.2250     0.0070     1.1530 c3         1 8A4       0.341700
     32 N30         -2.7700     3.3510    -0.1760 nd         1 8A4      -0.699000
     33 N25          4.4180     6.1370     7.3070 nd         1 8A4      -0.507800
     34 N4           3.3960    -0.0130     1.2500 nb         1 8A4      -0.770000
     35 N21          5.2280     5.3470     6.4810 na         1 8A4       0.149300
     36 N32         -4.0170     1.7460     0.5460 na         1 8A4      -0.172900
     37 O27         -2.7360    -0.2130     2.4700 oh         1 8A4      -0.602800
     38 O2           5.4100    -0.0360     2.3690 os         1 8A4      -0.442100
     39 Cl38        -4.1340    -4.3720    -2.4910 cl         1 8A4      -0.107400
     40 Cl12         1.1760     0.0280     5.1700 cl         1 8A4      -0.081400
     41 H1          -0.5330    -0.0060    -0.9430 ha         1 8A4       0.145000
     42 H3           6.3020     1.5310     4.2410 ha         1 8A4       0.143500
     43 H4          -2.7950    -2.5550     1.7990 ha         1 8A4       0.152500
     44 H5          -2.7100     0.1540    -1.5010 ha         1 8A4       0.152500
     45 H6           1.9050    -0.0050    -0.9370 ha         1 8A4       0.154000
     46 H7           3.1130     3.9080     7.1650 ha         1 8A4       0.147000
     47 H8           6.7650     3.8520     4.9290 ha         1 8A4       0.147000
     48 H9          -3.5780    -4.3520     0.3050 ha         1 8A4       0.147000
     49 H10         -3.4930    -1.6420    -2.9980 ha         1 8A4       0.147000
     50 H11          6.8840     8.1200     6.6270 ha         1 8A4       0.157000
     51 H12         -0.6470     0.0180     3.3150 ha         1 8A4       0.152000
     52 H13          4.6030     8.1380     8.0190 h4         1 8A4       0.050100
     53 H14         -0.8710     2.3580     0.1250 h4         1 8A4       0.051100
     54 H15          7.1270     5.7570     5.5020 h4         1 8A4       0.173000
     55 H16         -4.8810     3.6030    -0.1660 h5         1 8A4       0.067100
     56 H17         -5.4300     0.2540     0.1500 h1         1 8A4       0.060367
     57 H18         -6.0420     1.6420     1.0600 h1         1 8A4       0.060367
     58 H19         -5.0070     0.4500     1.8570 h1         1 8A4       0.060367
     59 H20          5.7510     0.8300     0.5300 h1         1 8A4       0.050033
     60 H21          7.1150    -0.0660     1.2120 h1         1 8A4       0.050033
     61 H22          5.7290    -0.9390     0.5440 h1         1 8A4       0.050033
     62 H23          5.1170    -0.5250     4.7530 hc         1 8A4       0.068700
     63 H24          3.6100    -0.5020     5.6790 hc         1 8A4       0.068700
     64 H25         -2.6520     0.5790     2.9760 ho         1 8A4       0.418000
     65 H2           2.6630     1.5850     6.4760 ha         1 8A4       0.143500
@<TRIPOS>BOND
     1    15    11 2   
     2    15    35 1   
     3     7     2 ar  
     4     7    23 ar  
     5    11    13 1   
     6     2    18 ar  
     7    35    23 1   
     8    35    33 1   
     9    23     8 ar  
    10    13    33 2   
    11    40    25 1   
    12    18    30 1   
    13    18     3 ar  
    14    30    21 1   
    15     8     3 ar  
    16    25    21 ar  
    17    25    17 ar  
    18    21    27 ar  
    19    37    31 1   
    20    12    17 ar  
    21    12    20 ar  
    22    17    22 ar  
    23    27    38 1   
    24    27    34 ar  
    25    38    29 1   
    26    28    36 1   
    27    36    26 1   
    28    36    16 1   
    29    31    20 1   
    30    31    26 1   
    31    31    19 1   
    32    20     1 ar  
    33    26    14 2   
    34    16    32 2   
    35    22    34 ar  
    36    22     6 ar  
    37     4    19 ar  
    38     4     9 ar  
    39    14    32 1   
    40    19     5 ar  
    41     1     6 ar  
    42     9    24 ar  
    43     5    10 ar  
    44    24    10 ar  
    45    24    39 1   
    46     1    41 1   
    47     2    65 1   
    48     3    42 1   
    49     4    43 1   
    50     5    44 1   
    51     6    45 1   
    52     7    46 1   
    53     8    47 1   
    54     9    48 1   
    55    10    49 1   
    56    11    50 1   
    57    12    51 1   
    58    13    52 1   
    59    14    53 1   
    60    15    54 1   
    61    16    55 1   
    62    28    56 1   
    63    28    57 1   
    64    28    58 1   
    65    29    59 1   
    66    29    60 1   
    67    29    61 1   
    68    30    62 1   
    69    30    63 1   
    70    37    64 1   
@<TRIPOS>SUBSTRUCTURE
     1 8A4         1 TEMP              0 ****  ****    0 ROOT
