@<TRIPOS>MOLECULE
molecule
   75    79     1     0     0
SMALL
bcc


@<TRIPOS>ATOM
      1 C5           0.0000     0.0000     0.0000 cc         1 8A6      -0.382600
      2 C4           1.5070     0.0000     0.0000 c3         1 8A6       0.151800
      3 C6          -0.7540    -0.2460     1.1680 cd         1 8A6       0.558600
      4 C3           1.9770     0.0000     1.4320 ce         1 8A6       0.080100
      5 C2           1.1560    -0.2390     2.4760 c2         1 8A6       0.060100
      6 O36          0.0470     9.6050     0.7260 o          1 8A6      -0.465300
      7 O35          0.9650    10.4840    -1.3350 o          1 8A6      -0.465300
      8 N34          2.7790    10.2440     0.9720 n3         1 8A6      -0.529500
      9 C38          2.7430     9.9870     2.5310 c3         1 8A6       0.232100
     10 C37          3.6310    10.6550     0.3650 c3         1 8A6       0.373100
     11 C39          3.7490    12.0390     0.3280 ca         1 8A6      -0.191300
     12 C44          4.0270    13.0290     1.5290 ca         1 8A6      -0.104500
     13 C43          4.1550    14.4640     1.5250 ca         1 8A6      -0.136000
     14 C42          3.9890    14.9420     0.2090 ca         1 8A6      -0.095000
     15 C41          4.3130    14.3540    -1.0110 ca         1 8A6      -0.136000
     16 C40          3.6690    13.0010    -0.7190 ca         1 8A6      -0.104500
     17 C27          1.6110     7.6910    -0.3700 ca         1 8A6      -0.120500
     18 C26          1.0560     6.6680     0.3920 ca         1 8A6      -0.052500
     19 C25          1.3300     5.3360     0.0790 ca         1 8A6      -0.111500
     20 C28          2.4380     7.3870    -1.4410 ca         1 8A6      -0.052500
     21 C29          2.7130     6.0540    -1.7540 ca         1 8A6      -0.111500
     22 C22          2.1570     5.0310    -0.9910 cp         1 8A6      -0.128000
     23 C20          3.8230     2.7330    -1.1990 cp         1 8A6      -0.073000
     24 C19          2.9690     3.4900    -2.0000 ca         1 8A6      -0.067000
     25 C18          1.6380     3.1120    -2.1510 ca         1 8A6      -0.125300
     26 C23          0.7090     3.9190    -3.0780 c3         1 8A6       0.694200
     27 F33          0.1100     3.0760    -3.9620 f          1 8A6      -0.210633
     28 F32         -0.2420     4.5460    -2.3330 f          1 8A6      -0.210633
     29 F31          1.4390     4.8490    -3.7600 f          1 8A6      -0.210633
     30 C17          1.1580     1.9770    -1.5020 ca         1 8A6      -0.219000
     31 C21          3.3440     1.5970    -0.5490 ca         1 8A6      -0.217000
     32 C16          2.0170     1.2330    -0.7030 ca         1 8A6      -0.065300
     33 C14          2.0230    -1.2510    -0.7150 c3         1 8A6       0.018300
     34 C24          3.5500    -1.3150    -0.5980 c3         1 8A6      -0.140600
     35 C15          1.4060    -2.5040    -0.0640 c3         1 8A6      -0.140600
     36 C8           3.4430     0.2620     1.7510 cg         1 8A6       0.129500
     37 N9           4.5290     0.4710     2.0010 n1         1 8A6      -0.238800
     38 N7           1.6910    -0.2650     3.8350 nz         1 8A6      -0.695400
     39 C10         -0.8570     0.2100    -1.0120 cd         1 8A6      -0.048600
     40 C13         -0.4770     0.4690    -2.4710 c3         1 8A6      -0.060800
     41 N11         -2.1110     0.1050    -0.5160 na         1 8A6       0.013400
     42 N12         -2.0150    -0.1830     0.8550 nc         1 8A6      -0.444800
     43 O1          -0.1630    -0.4970     2.3680 os         1 8A6      -0.307400
     44 H1           3.7180     9.6440     2.8540 h1         1 8A6       0.050700
     45 H2           2.1230     9.1120     2.6860 h1         1 8A6       0.050700
     46 H3           2.1600    10.7640     3.0110 h1         1 8A6       0.050700
     47 H4           3.6430    10.3250    -0.6670 h1         1 8A6       0.019700
     48 H5           4.7000    10.5450     0.5060 h1         1 8A6       0.019700
     49 H6           4.5380    12.3530     2.2050 ha         1 8A6       0.081000
     50 H7           4.7250    14.8680     2.3530 ha         1 8A6       0.165500
     51 H8           4.2530    15.9820     0.3550 ha         1 8A6       0.078000
     52 H9           4.1380    14.9820    -1.8760 ha         1 8A6       0.165500
     53 H10          3.9110    12.5900    -1.6920 ha         1 8A6       0.081000
     54 H11          0.1660     6.8590     0.9790 ha         1 8A6       0.162000
     55 H12          0.8270     4.4710     0.4930 ha         1 8A6       0.154500
     56 H13          2.7690     8.2270    -2.0390 ha         1 8A6       0.162000
     57 H14          3.2650     6.0010    -2.6840 ha         1 8A6       0.154500
     58 H15          2.6500     4.2830    -1.3330 ha         1 8A6       0.204000
     59 H16          0.1190     1.6720    -1.4830 ha         1 8A6       0.218000
     60 H17          2.6410     2.0910     0.1110 ha         1 8A6       0.220000
     61 H18          1.4410    -1.4270    -1.6110 hc         1 8A6       0.096700
     62 H19          4.3400    -0.6950    -1.0010 hc         1 8A6       0.050033
     63 H20          3.6850    -1.9290    -1.4800 hc         1 8A6       0.050033
     64 H21          3.8940    -1.9270     0.2280 hc         1 8A6       0.050033
     65 H22          1.8770    -3.4770    -0.1270 hc         1 8A6       0.050033
     66 H23          0.4030    -2.8610     0.1350 hc         1 8A6       0.050033
     67 H24          1.7310    -2.5830     0.9670 hc         1 8A6       0.050033
     68 H25          2.4010    -0.9660     3.9160 hn         1 8A6       0.499800
     69 H26          1.9790     0.6730     3.6400 hn         1 8A6       0.499800
     70 H27         -1.0880    -0.1660    -3.1010 hc         1 8A6       0.087033
     71 H28          0.5530     0.1590    -2.5950 hc         1 8A6       0.087033
     72 H29         -0.3770     1.5460    -2.5230 hc         1 8A6       0.087033
     73 H30         -2.8020    -0.2680    -1.1370 hn         1 8A6       0.349700
     74 H73          0.8440    -0.0370     4.3180 hn         1 8A6       0.499800
     75 S30          1.2110     9.4920    -0.1490 sy         1 8A6       0.803200
@<TRIPOS>BOND
     1     7    75 2
     2     9     8 1
     3     8    75 1
     4     8    10 1
     5    75     6 2
     6    75    17 1
     7    16    15 ar
     8    16    11 ar
     9    15    14 ar
    10    20    17 ar
    11    20    21 ar
    12    10    11 1
    13    11    12 ar
    14    14    13 ar
    15    17    18 ar
    16    41    42 1
    17    41    39 1
    18    21    22 ar
    19    12    13 ar
    20    42     3 2
    21    40    39 1
    22    39     1 2
    23    18    19 ar
    24    22    19 ar
    25    22    23 1
    26     3     1 1
    27     3    43 1
    28     1     2 1
    29    31    23 ar
    30    31    32 ar
    31    23    24 ar
    32    43     5 1
    33    35    33 1
    34     2    32 1
    35     2    33 1
    36     2     4 1
    37    32    30 ar
    38    24    25 ar
    39     5     4 2
    40     5    38 1
    41    33    34 1
    42     4    36 1
    43    30    25 ar
    44    25    26 1
    45    27    26 1
    46    36    37 3
    47    26    29 1
    48    26    28 1
    49     9    44 1
    50     9    45 1
    51     9    46 1
    52    10    47 1
    53    10    48 1
    54    12    49 1
    55    13    50 1
    56    14    51 1
    57    15    52 1
    58    16    53 1
    59    18    54 1
    60    19    55 1
    61    20    56 1
    62    21    57 1
    63    24    58 1
    64    30    59 1
    65    31    60 1
    66    33    61 1
    67    34    62 1
    68    34    63 1
    69    34    64 1
    70    35    65 1
    71    35    66 1
    72    35    67 1
    73    38    68 1
    74    38    69 1
    75    40    70 1
    76    40    71 1
    77    40    72 1
    78    41    73 1
    79    74    38 1
@<TRIPOS>SUBSTRUCTURE
     1 8A6         1 TEMP              0 ****  ****    0 ROOT
