@<TRIPOS>MOLECULE
molecule
   28    27     1     0     0
SMALL
bcc


@<TRIPOS>ATOM
      1 NAA          0.0000     0.0000     0.0000 nz         1 8AC      -0.811600
      2 OAB          7.3050     0.0010     6.6670 o          1 8AC      -0.845800
      3 OAC          9.4100    -0.0010     5.9940 o          1 8AC      -0.845800
      4 CAD          1.4690     0.0000     0.0000 c3         1 8AC       0.087800
      5 CAE          1.9790     0.0000     1.4420 c3         1 8AC      -0.139400
      6 CAF          3.5090    -0.0000     1.4430 c3         1 8AC      -0.075400
      7 CAG          5.5480    -0.0010     2.8850 c3         1 8AC      -0.111400
      8 CAH          4.0180     0.0010     2.8850 c3         1 8AC       0.009600
      9 CAI          6.0580     0.0000     4.3280 c3         1 8AC      -0.141400
     10 CAJ          7.5880    -0.0010     4.3280 c3         1 8AC      -0.195400
     11 CAK          8.0910     0.0000     5.7490 c          1 8AC       0.889600
     12 HNAA        -0.3340     0.0000    -0.9440 hn         1 8AC       0.452467
     13 HNAB        -0.3340     0.8170     0.4720 hn         1 8AC       0.452467
     14 HAD          1.8300    -0.8850    -0.5110 hx         1 8AC       0.110200
     15 HADA         1.8300     0.8850    -0.5110 hx         1 8AC       0.110200
     16 HAE          1.6170    -0.8840     1.9530 hc         1 8AC       0.061700
     17 HAEA         1.6180     0.8850     1.9530 hc         1 8AC       0.061700
     18 HAF          3.7080    -0.8610     0.8150 hc         1 8AC       0.030700
     19 HAFA         3.7090     0.8600     0.8150 hc         1 8AC       0.030700
     20 HAG          6.0640    -0.9160     2.6200 hc         1 8AC       0.075700
     21 HAGA         6.0660     0.9130     2.6180 hc         1 8AC       0.075700
     22 HAH          3.5000    -0.9130     3.1520 hc         1 8AC       0.041700
     23 HAHA         3.5020     0.9160     3.1500 hc         1 8AC       0.041700
     24 HAI          5.8580    -0.8590     4.9560 hc         1 8AC       0.066700
     25 HAIA         5.8590     0.8610     4.9540 hc         1 8AC       0.066700
     26 HAJ          7.9500     0.8820     3.8160 hc         1 8AC       0.024700
     27 HAJA         7.9490    -0.8860     3.8180 hc         1 8AC       0.024700
     28 HAA3        -0.3340    -0.8280     0.4520 hn         1 8AC       0.452467
@<TRIPOS>BOND
     1     4     1 1   
     2     1    12 1   
     3     1    13 1   
     4     2    11 1   
     5    11     3 1   
     6     5     4 1   
     7     4    14 1   
     8     4    15 1   
     9     5     6 1   
    10     5    16 1   
    11     5    17 1   
    12     6     7 1   
    13     6    18 1   
    14     6    19 1   
    15     8     7 1   
    16     7    20 1   
    17     7    21 1   
    18     8     9 1   
    19     8    22 1   
    20     8    23 1   
    21    10     9 1   
    22     9    24 1   
    23     9    25 1   
    24    11    10 1   
    25    10    26 1   
    26    10    27 1   
    27    28     1 1   
@<TRIPOS>SUBSTRUCTURE
     1 8AC         1 TEMP              0 ****  ****    0 ROOT
