@<TRIPOS>MOLECULE
8AC
   28    27     1     0     0
SMALL
bcc


@<TRIPOS>ATOM
      1 NAA          0.0000     0.0000     0.0000 nz         1 8AC       0.083400
      2 OAB          7.3050     0.0010     6.6670 o          1 8AC      -0.894300
      3 OAC          9.4100    -0.0010     5.9940 o          1 8AC      -0.894300
      4 CAD          1.4690     0.0000     0.0000 c3         1 8AC      -0.056200
      5 CAE          1.9790     0.0000     1.4420 c3         1 8AC      -0.067400
      6 CAF          3.5090    -0.0000     1.4430 c3         1 8AC      -0.023400
      7 CAG          5.5480    -0.0010     2.8850 c3         1 8AC      -0.065400
      8 CAH          4.0180     0.0010     2.8850 c3         1 8AC       0.074600
      9 CAI          6.0580     0.0000     4.3280 c3         1 8AC      -0.115400
     10 CAJ          7.5880    -0.0010     4.3280 c3         1 8AC      -0.145400
     11 CAK          8.0910     0.0000     5.7490 c          1 8AC       0.977600
     12 HNAA        -0.3340     0.0000    -0.9440 hn         1 8AC       0.220133
     13 HNAB        -0.3340     0.8170     0.4720 hn         1 8AC       0.220133
     14 HAD          1.8300    -0.8850    -0.5110 hx         1 8AC       0.084700
     15 HADA         1.8300     0.8850    -0.5110 hx         1 8AC       0.084700
     16 HAE          1.6170    -0.8840     1.9530 hc         1 8AC       0.032700
     17 HAEA         1.6180     0.8850     1.9530 hc         1 8AC       0.032700
     18 HAF          3.7080    -0.8610     0.8150 hc         1 8AC       0.002700
     19 HAFA         3.7090     0.8600     0.8150 hc         1 8AC       0.002700
     20 HAG          6.0640    -0.9160     2.6200 hc         1 8AC       0.050700
     21 HAGA         6.0660     0.9130     2.6180 hc         1 8AC       0.050700
     22 HAH          3.5000    -0.9130     3.1520 hc         1 8AC       0.009700
     23 HAHA         3.5020     0.9160     3.1500 hc         1 8AC       0.009700
     24 HAI          5.8580    -0.8590     4.9560 hc         1 8AC       0.047700
     25 HAIA         5.8590     0.8610     4.9540 hc         1 8AC       0.047700
     26 HAJ          7.9500     0.8820     3.8160 hc         1 8AC       0.002700
     27 HAJA         7.9490    -0.8860     3.8180 hc         1 8AC       0.002700
     28 HAA3        -0.3340    -0.8280     0.4520 hn         1 8AC       0.220133
@<TRIPOS>BOND
     1     1     4 1   
     2     1    12 1   
     3     1    13 1   
     4     1    28 1   
     5     2    11 1   
     6     3    11 1   
     7     4     5 1   
     8     4    14 1   
     9     4    15 1   
    10     5     6 1   
    11     5    16 1   
    12     5    17 1   
    13     6     8 1   
    14     6    18 1   
    15     6    19 1   
    16     7     8 1   
    17     7     9 1   
    18     7    20 1   
    19     7    21 1   
    20     8    22 1   
    21     8    23 1   
    22     9    10 1   
    23     9    24 1   
    24     9    25 1   
    25    10    11 1   
    26    10    26 1   
    27    10    27 1   
@<TRIPOS>SUBSTRUCTURE
     1 8AC         1 TEMP              0 ****  ****    0 ROOT
