@<TRIPOS>MOLECULE
molecule
   49    51     1     0     0
SMALL
bcc


@<TRIPOS>ATOM
      1 C1           0.0000     0.0000     0.0000 ca         1 8AD      -0.077000
      2 C2           1.3920     0.0000     0.0000 ca         1 8AD      -0.150000
      3 C3           2.0770     0.0000     1.2080 ca         1 8AD      -0.069000
      4 C4           1.3680    -0.0000     2.4120 ca         1 8AD      -0.197900
      5 C5          -2.6960    -0.0010     4.8660 ca         1 8AD      -0.183300
      6 C6          -4.0910    -0.0030     4.9330 ca         1 8AD      -0.107000
      7 C7          -4.8420    -0.0040     3.7640 ca         1 8AD      -0.138000
      8 C8          -4.1940    -0.0030     2.5330 ca         1 8AD      -0.096000
      9 C9          -2.1080    -0.0010     1.2480 ca         1 8AD       0.239600
     10 N10         -0.6760    -0.0000     3.6190 nb         1 8AD      -0.676000
     11 C11         -0.7100    -0.0000     1.2130 ca         1 8AD      -0.177300
     12 C12         -0.0250    -0.0010     2.4390 ca         1 8AD       0.459600
     13 C13         -2.7900    -0.0020     2.4690 ca         1 8AD      -0.172300
     14 C14         -2.0230    -0.0020     3.6460 ca         1 8AD       0.443600
     15 N9          -2.8430    -0.0010     0.0310 nv         1 8AD      -1.001200
     16 CD1          2.1340    -0.0010     3.6530 c          1 8AD       0.692700
     17 OD1          2.4800    -1.0730     4.1750 o          1 8AD      -0.586100
     18 ND1          2.4660     1.2460     4.1910 ns         1 8AD      -0.586900
     19 ND2         -0.4130     3.8090     7.8480 n3         1 8AD      -0.725600
     20 CD2          3.2410     1.4100     5.3990 c3         1 8AD       0.116000
     21 CD3          2.3660     1.4640     6.6480 c3         1 8AD      -0.104400
     22 CD4          1.3820     2.6400     6.6250 c3         1 8AD      -0.083400
     23 CD5          0.5000     2.6740     7.8680 c3         1 8AD       0.163800
     24 CD7         -1.2030     3.8580     9.0800 c3         1 8AD       0.149100
     25 CD8         -1.2970     3.7410     6.6830 c3         1 8AD       0.149100
     26 H1          -0.5390     0.0000    -0.9400 ha         1 8AD       0.142000
     27 H2           1.9370     0.0000    -0.9360 ha         1 8AD       0.139000
     28 H3           3.1600    -0.0000     1.2180 ha         1 8AD       0.145000
     29 H5          -2.1230    -0.0000     5.7850 ha         1 8AD       0.149000
     30 H6          -4.5880    -0.0040     5.8960 ha         1 8AD       0.136000
     31 H7          -5.9250    -0.0060     3.8110 ha         1 8AD       0.135000
     32 H8          -4.7750    -0.0040     1.6190 ha         1 8AD       0.140000
     33 H9A         -3.1020     0.8660    -0.3970 hn         1 8AD       0.436800
     34 H9B         -3.1010    -0.8680    -0.3980 hn         1 8AD       0.436800
     35 HD1          2.1540     2.0680     3.7120 hn         1 8AD       0.312500
     36 HD21         3.9300     0.5790     5.4890 h1         1 8AD       0.050700
     37 HD22         3.8080     2.3310     5.3290 h1         1 8AD       0.050700
     38 HD31         3.0040     1.5590     7.5180 hc         1 8AD       0.051700
     39 HD32         1.8060     0.5400     6.7230 hc         1 8AD       0.051700
     40 HD41         0.7500     2.5530     5.7490 hc         1 8AD       0.046200
     41 HD42         1.9410     3.5650     6.5650 hc         1 8AD       0.046200
     42 HD51        -0.0750     1.7580     7.9190 h1         1 8AD       0.031200
     43 HD52         1.1310     2.7440     8.7460 h1         1 8AD       0.031200
     44 HD71        -1.8630     4.7170     9.0510 h1         1 8AD       0.031367
     45 HD72        -0.5380     3.9420     9.9320 h1         1 8AD       0.031367
     46 HD73        -1.7910     2.9530     9.1690 h1         1 8AD       0.031367
     47 HD81        -2.1310     4.4180     6.8230 h1         1 8AD       0.031367
     48 HD82        -1.6680     2.7300     6.5690 h1         1 8AD       0.031367
     49 HD83        -0.7460     4.0250     5.7940 h1         1 8AD       0.031367
@<TRIPOS>BOND
     1     1     2 ar  
     2     1    11 ar  
     3     1    26 1   
     4     2     3 ar  
     5     2    27 1   
     6     3     4 ar  
     7     3    28 1   
     8     4    12 ar  
     9     4    16 1   
    10     5     6 ar  
    11     5    14 ar  
    12     5    29 1   
    13     6     7 ar  
    14     6    30 1   
    15     7     8 ar  
    16     7    31 1   
    17     8    13 ar  
    18     8    32 1   
    19     9    11 ar  
    20     9    13 ar  
    21     9    15 1   
    22    10    12 ar  
    23    10    14 ar  
    24    11    12 ar  
    25    13    14 ar  
    26    15    33 1   
    27    15    34 1   
    28    16    17 2   
    29    16    18 1   
    30    18    20 1   
    31    18    35 1   
    32    19    23 1   
    33    19    24 1   
    34    19    25 1   
    35    20    21 1   
    36    20    36 1   
    37    20    37 1   
    38    21    22 1   
    39    21    38 1   
    40    21    39 1   
    41    22    23 1   
    42    22    40 1   
    43    22    41 1   
    44    23    42 1   
    45    23    43 1   
    46    24    44 1   
    47    24    45 1   
    48    24    46 1   
    49    25    47 1   
    50    25    48 1   
    51    25    49 1   
@<TRIPOS>SUBSTRUCTURE
     1 8AD         1 TEMP              0 ****  ****    0 ROOT
