@<TRIPOS>MOLECULE
molecule
   60    65     1     0     0
SMALL
bcc


@<TRIPOS>ATOM
      1 P            0.0000     0.0000     0.0000 p3         1 8AF       0.250300
      2 OP1          1.6110     0.0000     0.0000 oh         1 8AF      -0.501600
      3 O5'         -0.3340     0.0000     1.5750 os         1 8AF      -0.352900
      4 C5'         -0.4910    -1.1990     2.3370 c3         1 8AF       0.208400
      5 C4'         -0.8020    -0.8410     3.7920 c3         1 8AF       0.126100
      6 C3'         -0.8520    -2.1180     4.6610 c3         1 8AF       0.116100
      7 O3'          0.3870    -2.3040     5.3480 oh         1 8AF      -0.588800
      8 C2'         -1.9950    -1.8440     5.6640 c3         1 8AF      -0.157400
      9 C1'         -2.5000    -0.4350     5.2830 c3         1 8AF       0.239800
     10 O4'         -2.1250    -0.2710     3.8980 os         1 8AF      -0.397600
     11 N9          -3.9560    -0.3580     5.4290 na         1 8AF      -0.214900
     12 C4          -4.6350     0.3220     6.3990 cc         1 8AF      -0.045000
     13 C5          -5.9850     0.1200     6.1510 cc         1 8AF       0.314800
     14 N7          -6.0850    -0.6680     5.0510 nc         1 8AF      -0.666000
     15 C8          -4.8830    -0.9490     4.6150 cd         1 8AF       0.757400
     16 N3          -4.2660     1.0940     7.4710 na         1 8AF      -0.650600
     17 C2          -5.2070     1.6520     8.2760 cd         1 8AF       0.672100
     18 N2          -4.7980     2.4170     9.3360 nz         1 8AF      -0.741600
     19 N1          -6.4960     1.4850     8.0770 nc         1 8AF      -0.658100
     20 C6          -6.9550     0.7460     7.0540 c          1 8AF       0.626000
     21 O6          -8.1540     0.5990     6.8790 o          1 8AF      -0.440100
     22 OP2         -0.3350     1.5190    -0.4130 oh         1 8AF      -0.501600
     23 N4          -4.5940    -1.7310     3.5100 nu         1 8AF      -0.740300
     24 C12         -5.6250    -2.3880     2.8300 ca         1 8AF       0.136600
     25 C13         -5.4730    -2.7150     1.4880 ca         1 8AF      -0.159000
     26 C14         -6.4910    -3.3650     0.8150 ca         1 8AF      -0.085000
     27 C15         -7.6590    -3.6910     1.4730 ca         1 8AF      -0.095300
     28 C16         -7.8230    -3.3690     2.8190 cp         1 8AF      -0.006000
     29 C17         -6.7950    -2.7180     3.4980 ca         1 8AF      -0.116000
     30 C18         -8.9200    -4.3800     1.0130 c3         1 8AF       0.012200
     31 C19         -9.8320    -4.4270     2.2140 ca         1 8AF      -0.080300
     32 C20         -9.1590    -3.8280     3.2760 cp         1 8AF      -0.054000
     33 C1         -11.1000    -4.9360     2.3950 ca         1 8AF      -0.111000
     34 C3         -11.7100    -4.8550     3.6340 ca         1 8AF      -0.111000
     35 C7         -11.0490    -4.2620     4.6950 ca         1 8AF      -0.130000
     36 C9          -9.7840    -3.7410     4.5220 ca         1 8AF      -0.096000
     37 H1           1.9250    -0.4140    -0.7870 ho         1 8AF       0.434500
     38 H2          -1.3050    -1.7830     1.9260 h1         1 8AF       0.039700
     39 H3           0.4250    -1.7760     2.2950 h1         1 8AF       0.039700
     40 H4          -0.0640    -0.1510     4.1820 h1         1 8AF       0.097700
     41 H5          -1.0870    -2.9800     4.0500 h1         1 8AF       0.060700
     42 H6           0.5970    -3.2230     5.3740 ho         1 8AF       0.423000
     43 H7          -1.6160    -1.8480     6.6790 hc         1 8AF       0.081700
     44 H8          -2.7860    -2.5740     5.5430 hc         1 8AF       0.081700
     45 H9          -2.0140     0.3160     5.8950 h2         1 8AF       0.065700
     46 H10         -3.2960     1.2470     7.6610 hn         1 8AF       0.445800
     47 H11         -4.2290     1.8650     9.9460 hn         1 8AF       0.482133
     48 H12         -5.5990     2.7490     9.8360 hn         1 8AF       0.482133
     49 H13         -0.9230     1.5220    -1.1500 ho         1 8AF       0.434500
     50 H14         -3.6540    -1.7920     3.1710 hn         1 8AF       0.471800
     51 H15         -4.5630    -2.4490     0.9660 ha         1 8AF       0.130000
     52 H16         -6.3710    -3.6190    -0.2310 ha         1 8AF       0.141000
     53 H17         -6.8820    -2.5300     4.5610 ha         1 8AF       0.160000
     54 H18         -9.3840    -3.8110     0.2160 hc         1 8AF       0.074700
     55 H19         -8.6940    -5.3850     0.6780 hc         1 8AF       0.074700
     56 H20        -11.6190    -5.4010     1.5650 ha         1 8AF       0.135000
     57 H21        -12.7030    -5.2630     3.7760 ha         1 8AF       0.138000
     58 H22        -11.5300    -4.2000     5.6640 ha         1 8AF       0.135000
     59 H23         -9.2700    -3.2770     5.3550 ha         1 8AF       0.132000
     60 H231        -4.2750     3.2010     8.9990 hn         1 8AF       0.482133
@<TRIPOS>BOND
     1    34    33 ar  
     2    34    35 ar  
     3    33    31 ar  
     4    35    36 ar  
     5    31    32 ar  
     6    31    30 1   
     7    36    32 ar  
     8    32    28 1   
     9    30    27 1   
    10    27    28 ar  
    11    27    26 ar  
    12    28    29 ar  
    13    26    25 ar  
    14    29    24 ar  
    15    25    24 ar  
    16    24    23 1   
    17    23    15 1   
    18    14    15 2   
    19    14    13 1   
    20    15    11 1   
    21    21    20 2   
    22    13    20 1   
    23    13    12 2   
    24    11     9 1   
    25    11    12 1   
    26    20    19 1   
    27     9    10 1   
    28     9     8 1   
    29    12    16 1   
    30    10     5 1   
    31     8     6 1   
    32    19    17 2   
    33    16    17 1   
    34     5     6 1   
    35     5     4 1   
    36     7     6 1   
    37    17    18 1   
    38     4     3 1   
    39     3     1 1   
    40     1    22 1   
    41     1     2 1   
    42     2    37 1   
    43     4    38 1   
    44     4    39 1   
    45     5    40 1   
    46     6    41 1   
    47     7    42 1   
    48     8    43 1   
    49     8    44 1   
    50     9    45 1   
    51    16    46 1   
    52    18    47 1   
    53    18    48 1   
    54    22    49 1   
    55    23    50 1   
    56    25    51 1   
    57    26    52 1   
    58    29    53 1   
    59    30    54 1   
    60    30    55 1   
    61    33    56 1   
    62    34    57 1   
    63    35    58 1   
    64    36    59 1   
    65    60    18 1   
@<TRIPOS>SUBSTRUCTURE
     1 8AF         1 TEMP              0 ****  ****    0 ROOT
