@<TRIPOS>MOLECULE
8AJ
   44    47     1     0     0
SMALL
bcc


@<TRIPOS>ATOM
      1 C10          0.0000     0.0000     0.0000 ca         1 8AJ      -0.076000
      2 C13          1.3890     0.0000     0.0000 ca         1 8AJ      -0.033600
      3 C15          4.3030     1.0670     3.2400 ca         1 8AJ      -0.088500
      4 C17         -5.8250    -0.9750     2.1610 c3         1 8AJ       0.181600
      5 N01         -0.7040     0.0110     3.5990 na         1 8AJ       0.476800
      6 C01         -0.0180     0.0100     2.3970 ca         1 8AJ      -0.162300
      7 C02         -0.0350    -0.0010     4.7950 cc         1 8AJ      -0.274300
      8 C03         -2.0290     0.0190     3.9090 cc         1 8AJ       0.088800
      9 C04          1.3870     0.0000     2.3980 ca         1 8AJ      -0.009000
     10 C05         -0.7010     0.0050     1.1870 ca         1 8AJ      -0.125000
     11 C06          1.3750    -0.0120     4.8420 cc         1 8AJ      -0.019000
     12 N02         -0.9560     0.0030     5.7470 nd         1 8AJ      -0.062000
     13 N03         -2.1260     0.0140     5.2140 nd         1 8AJ      -0.317700
     14 C07         -3.1740     0.0320     2.9290 c3         1 8AJ      -0.017700
     15 C08          2.1020    -0.0120     3.6870 cd         1 8AJ      -0.042000
     16 C09          2.0840     0.0000     1.1890 ca         1 8AJ      -0.080000
     17 C11         -3.4600    -1.3950     2.4590 c3         1 8AJ       0.137800
     18 C12          3.5810    -0.0240     3.7250 ca         1 8AJ      -0.043000
     19 N           -4.5760    -1.3820     1.5040 n3         1 8AJ      -0.552600
     20 C14          4.2590    -1.1260     4.2490 ca         1 8AJ      -0.088500
     21 Cl           2.2530    -0.0010    -1.5050 cl         1 8AJ      -0.009400
     22 C16         -4.7260    -2.6900     0.8520 c3         1 8AJ       0.181600
     23 C18          5.6390    -1.1300     4.2830 ca         1 8AJ      -0.099000
     24 C19          5.6820     1.0500     3.2790 ca         1 8AJ      -0.099000
     25 C            6.3490    -0.0450     3.8000 ca         1 8AJ      -0.094000
     26 H1          -0.5370    -0.0000    -0.9410 ha         1 8AJ       0.121000
     27 H2           3.7830     1.9250     2.8320 ha         1 8AJ       0.111000
     28 H3          -5.8620    -1.3940     3.1590 h1         1 8AJ       0.003867
     29 H4          -5.8650     0.1060     2.2220 h1         1 8AJ       0.003867
     30 H5          -6.6700    -1.3350     1.5860 h1         1 8AJ       0.003867
     31 H6          -1.7850     0.0050     1.1760 ha         1 8AJ       0.153000
     32 H7           1.8830    -0.0170     5.7990 ha         1 8AJ       0.133000
     33 H8          -2.9130     0.6480     2.0770 hc         1 8AJ       0.041200
     34 H9           3.1680    -0.0000     1.1860 ha         1 8AJ       0.137000
     35 H10         -3.7210    -2.0110     3.3120 h1         1 8AJ       0.018700
     36 H11          3.7040    -1.9750     4.6280 ha         1 8AJ       0.111000
     37 H12         -4.9780    -3.4370     1.5950 h1         1 8AJ       0.003867
     38 H13         -5.5160    -2.6360     0.1130 h1         1 8AJ       0.003867
     39 H14         -3.7960    -2.9610     0.3680 h1         1 8AJ       0.003867
     40 H15          6.1670    -1.9840     4.6890 ha         1 8AJ       0.106000
     41 H16          6.2450     1.8960     2.9030 ha         1 8AJ       0.106000
     42 H17          7.4320    -0.0540     3.8290 ha         1 8AJ       0.104000
     43 H18         -4.0560     0.4370     3.4110 hc         1 8AJ       0.041200
     44 H19         -2.5780    -1.8010     1.9780 h1         1 8AJ       0.018700
@<TRIPOS>BOND
     1     1     2 ar  
     2     1    10 ar  
     3     1    26 1   
     4     2    16 ar  
     5     2    21 1   
     6     3    18 ar  
     7     3    24 ar  
     8     3    27 1   
     9     4    19 1   
    10     4    28 1   
    11     4    29 1   
    12     4    30 1   
    13     5     6 1   
    14     5     7 1   
    15     5     8 1   
    16     6     9 ar  
    17     6    10 ar  
    18     7    11 1   
    19     7    12 2   
    20     8    13 2   
    21     8    14 1   
    22     9    15 1   
    23     9    16 ar  
    24    10    31 1   
    25    11    15 2   
    26    11    32 1   
    27    12    13 1   
    28    14    17 1   
    29    14    33 1   
    30    14    43 1   
    31    15    18 1   
    32    16    34 1   
    33    17    19 1   
    34    17    35 1   
    35    17    44 1   
    36    18    20 ar  
    37    19    22 1   
    38    20    23 ar  
    39    20    36 1   
    40    22    37 1   
    41    22    38 1   
    42    22    39 1   
    43    23    25 ar  
    44    23    40 1   
    45    24    25 ar  
    46    24    41 1   
    47    25    42 1   
@<TRIPOS>SUBSTRUCTURE
     1 8AJ         1 TEMP              0 ****  ****    0 ROOT
