@<TRIPOS>MOLECULE
molecule
   60    63     1     0     0
SMALL
bcc


@<TRIPOS>ATOM
      1 C5           0.0000     0.0000     0.0000 c3         1 8AM       0.147800
      2 C6          -1.6020    -0.6930     1.5890 ca         1 8AM       0.917900
      3 C8          -3.6620    -1.3360     0.7600 ca         1 8AM       0.806200
      4 C10         -2.8620    -2.1080     2.9010 ca         1 8AM       0.495800
      5 N12         -3.3230    -2.9110     3.9130 na         1 8AM      -0.246000
      6 C13         -4.5610    -3.3570     3.5480 cc         1 8AM       0.409700
      7 C15         -2.6180    -3.2320     5.1560 c3         1 8AM       0.052000
      8 C17         -3.4480    -2.7600     6.3510 c3         1 8AM      -0.108600
      9 C20         -3.3740     0.3570    -1.5800 cd         1 8AM      -0.101300
     10 C1           1.5410     0.0000     0.0000 c3         1 8AM       0.075700
     11 C2           1.9440     0.0000     1.4930 c3         1 8AM       0.143600
     12 C3           0.6830    -0.5650     2.1930 c3         1 8AM       0.146800
     13 N4          -0.4340     0.0300     1.4140 nh         1 8AM      -0.666300
     14 N7          -2.5260    -0.6590     0.6380 nb         1 8AM      -0.865000
     15 C9          -3.8720    -2.0940     1.9250 ca         1 8AM      -0.228200
     16 N11         -1.7560    -1.3960     2.7000 nb         1 8AM      -0.833000
     17 N14         -4.8810    -2.8760     2.3830 nd         1 8AM      -0.576100
     18 C16         -2.4080    -4.7440     5.2470 c3         1 8AM      -0.108600
     19 N18         -4.6200    -1.2940    -0.2380 nu         1 8AM      -0.702300
     20 C19         -4.4450    -0.4430    -1.3470 cc         1 8AM      -0.082700
     21 N21         -3.5970     1.0120    -2.7500 na         1 8AM       0.060400
     22 N22         -4.8380     0.5970    -3.2480 nd         1 8AM      -0.581800
     23 C23         -5.3510    -0.2690    -2.4080 cc         1 8AM       0.554600
     24 O24         -6.5510    -0.8960    -2.5440 os         1 8AM      -0.431100
     25 C25         -7.3220    -0.5770    -3.7030 c3         1 8AM       0.134700
     26 F27          3.0480    -0.8330     1.7060 f          1 8AM      -0.232300
     27 N28          2.0490     1.2030    -0.6640 ns         1 8AM      -0.583900
     28 C29          2.2150     1.2150    -2.0010 c          1 8AM       0.656100
     29 C30          2.7380     2.4530    -2.6850 c3         1 8AM      -0.159400
     30 C31          2.8310     2.2030    -4.1910 c3         1 8AM      -0.076100
     31 O32          1.9430     0.2310    -2.6550 o          1 8AM      -0.603100
     32 H1          -0.3680     0.8780    -0.5170 h1         1 8AM       0.073700
     33 H2          -0.3680    -0.8990    -0.4790 h1         1 8AM       0.073700
     34 H3          -5.1840    -4.0140     4.1420 h5         1 8AM       0.077800
     35 H4          -1.6560    -2.7330     5.1650 h1         1 8AM       0.090700
     36 H5          -3.7560    -1.7330     6.1940 hc         1 8AM       0.048033
     37 H6          -2.8520    -2.8240     7.2530 hc         1 8AM       0.048033
     38 H7          -4.3250    -3.3880     6.4520 hc         1 8AM       0.048033
     39 H9          -3.2490     2.5750    -4.0970 h1         1 8AM       0.053367
     40 H10         -2.2770     2.6310    -2.6210 h1         1 8AM       0.053367
     41 H11         -1.8970     1.4540    -3.8860 h1         1 8AM       0.053367
     42 H12          1.9140    -0.8920    -0.4880 h1         1 8AM       0.105700
     43 H13          2.1470     1.0090     1.8310 h1         1 8AM       0.070700
     44 H14          0.6610    -1.6460     2.1240 h1         1 8AM       0.077700
     45 H15          0.6430    -0.2400     3.2250 h1         1 8AM       0.077700
     46 H16         -2.0180    -5.1120     4.3060 hc         1 8AM       0.048033
     47 H17         -3.3540    -5.2280     5.4590 hc         1 8AM       0.048033
     48 H18         -1.7040    -4.9640     6.0400 hc         1 8AM       0.048033
     49 H19         -5.4320    -1.8750    -0.1770 hn         1 8AM       0.485800
     50 H20         -7.5440     0.4840    -3.7080 h1         1 8AM       0.045033
     51 H21         -6.7600    -0.8320    -4.5930 h1         1 8AM       0.045033
     52 H22         -8.2480    -1.1390    -3.6870 h1         1 8AM       0.045033
     53 H23          2.3040     2.0040    -0.1210 hn         1 8AM       0.317500
     54 H24          2.0650     3.2810    -2.4970 hc         1 8AM       0.058700
     55 H25          3.7210     2.6910    -2.2970 hc         1 8AM       0.058700
     56 H26          3.5080     1.3780    -4.3790 hc         1 8AM       0.044700
     57 H27          3.2030     3.0940    -4.6830 hc         1 8AM       0.044700
     58 H28          1.8490     1.9600    -4.5790 hc         1 8AM       0.044700
     59 H8          -2.5520     0.5340    -0.8980 h4         1 8AM       0.224000
     60 C26         -2.6970     1.9810    -3.3790 c3         1 8AM       0.075600
@<TRIPOS>BOND
     1    18     7 1
     2     8     7 1
     3     6     5 1
     4     6    17 2
     5     7     5 1
     6     5     4 1
     7    17    15 1
     8     4    15 ar
     9     4    16 ar
    10    15     3 ar
    11    25    24 1
    12    24    23 1
    13    16     2 ar
    14     3    19 1
    15     3    14 ar
    16    19    20 1
    17     2    14 ar
    18     2    13 1
    19    26    11 1
    20    23    20 1
    21    23    22 2
    22    20     9 2
    23    12    13 1
    24    12    11 1
    25    13     1 1
    26    22    21 1
    27    11    10 1
    28     9    21 1
    29     1    10 1
    30    21    60 1
    31    10    27 1
    32    27    28 1
    33    28    31 2
    34    28    29 1
    35    29    30 1
    36     1    32 1
    37     1    33 1
    38     6    34 1
    39     7    35 1
    40     8    36 1
    41     8    37 1
    42     8    38 1
    43     9    59 1
    44    60    39 1
    45    60    40 1
    46    60    41 1
    47    10    42 1
    48    11    43 1
    49    12    44 1
    50    12    45 1
    51    18    46 1
    52    18    47 1
    53    18    48 1
    54    19    49 1
    55    25    50 1
    56    25    51 1
    57    25    52 1
    58    27    53 1
    59    29    54 1
    60    29    55 1
    61    30    56 1
    62    30    57 1
    63    30    58 1
@<TRIPOS>SUBSTRUCTURE
     1 8AM         1 TEMP              0 ****  ****    0 ROOT
