@<TRIPOS>MOLECULE
8AM
   60    63     1     0     0
SMALL
bcc


@<TRIPOS>ATOM
      1 C5           0.0000     0.0000     0.0000 c3         1 8AM       0.130800
      2 C6          -1.6020    -0.6930     1.5890 ca         1 8AM       0.756900
      3 C8          -3.6620    -1.3360     0.7600 ca         1 8AM       0.597200
      4 C10         -2.8620    -2.1080     2.9010 ca         1 8AM       0.292800
      5 N12         -3.3230    -2.9110     3.9130 na         1 8AM       0.217000
      6 C13         -4.5610    -3.3570     3.5480 cc         1 8AM       0.227700
      7 C15         -2.6180    -3.2320     5.1560 c3         1 8AM      -0.065000
      8 C17         -3.4480    -2.7600     6.3510 c3         1 8AM      -0.011100
      9 C20         -3.3740     0.3570    -1.5800 cc         1 8AM      -0.255300
     10 C1           1.5410     0.0000     0.0000 c3         1 8AM      -0.019300
     11 C2           1.9440     0.0000     1.4930 c3         1 8AM       0.161600
     12 C3           0.6830    -0.5650     2.1930 c3         1 8AM       0.129800
     13 N4          -0.4340     0.0300     1.4140 nh         1 8AM      -0.454300
     14 N7          -2.5260    -0.6590     0.6380 nb         1 8AM      -0.765000
     15 C9          -3.8720    -2.0940     1.9250 ca         1 8AM      -0.264200
     16 N11         -1.7560    -1.3960     2.7000 nb         1 8AM      -0.721000
     17 N14         -4.8810    -2.8760     2.3830 nd         1 8AM      -0.482100
     18 C16         -2.4080    -4.7440     5.2470 c3         1 8AM      -0.011100
     19 N18         -4.6200    -1.2940    -0.2380 nu         1 8AM      -0.186300
     20 C19         -4.4450    -0.4430    -1.3470 cd         1 8AM      -0.260700
     21 N21         -3.5970     1.0120    -2.7500 na         1 8AM       0.494400
     22 N22         -4.8380     0.5970    -3.2480 nc         1 8AM      -0.718800
     23 C23         -5.3510    -0.2690    -2.4080 cd         1 8AM       0.594600
     24 O24         -6.5510    -0.8960    -2.5440 os         1 8AM      -0.419100
     25 C25         -7.3220    -0.5770    -3.7030 c3         1 8AM       0.258700
     26 F27          3.0480    -0.8330     1.7060 f          1 8AM      -0.219300
     27 N28          2.0490     1.2030    -0.6640 ns         1 8AM      -0.193900
     28 C29          2.2150     1.2150    -2.0010 c          1 8AM       0.571100
     29 C30          2.7380     2.4530    -2.6850 c3         1 8AM      -0.096400
     30 C31          2.8310     2.2030    -4.1910 c3         1 8AM       0.021900
     31 O32          1.9430     0.2310    -2.6550 o          1 8AM      -0.640100
     32 H1          -0.3680     0.8780    -0.5170 h1         1 8AM       0.040200
     33 H2          -0.3680    -0.8990    -0.4790 h1         1 8AM       0.040200
     34 H3          -5.1840    -4.0140     4.1420 h5         1 8AM       0.033800
     35 H4          -1.6560    -2.7330     5.1650 h1         1 8AM       0.063700
     36 H5          -3.7560    -1.7330     6.1940 hc         1 8AM       0.015533
     37 H6          -2.8520    -2.8240     7.2530 hc         1 8AM       0.015533
     38 H7          -4.3250    -3.3880     6.4520 hc         1 8AM       0.015533
     39 H9          -3.2490     2.5750    -4.0970 h1         1 8AM       0.020367
     40 H10         -2.2770     2.6310    -2.6210 h1         1 8AM       0.020367
     41 H11         -1.8970     1.4540    -3.8860 h1         1 8AM       0.020367
     42 H12          1.9140    -0.8920    -0.4880 h1         1 8AM       0.079700
     43 H13          2.1470     1.0090     1.8310 h1         1 8AM       0.038700
     44 H14          0.6610    -1.6460     2.1240 h1         1 8AM       0.044200
     45 H15          0.6430    -0.2400     3.2250 h1         1 8AM       0.044200
     46 H16         -2.0180    -5.1120     4.3060 hc         1 8AM       0.015533
     47 H17         -3.3540    -5.2280     5.4590 hc         1 8AM       0.015533
     48 H18         -1.7040    -4.9640     6.0400 hc         1 8AM       0.015533
     49 H19         -5.4320    -1.8750    -0.1770 hn         1 8AM       0.301800
     50 H20         -7.5440     0.4840    -3.7080 h1         1 8AM      -0.000967
     51 H21         -6.7600    -0.8320    -4.5930 h1         1 8AM      -0.000967
     52 H22         -8.2480    -1.1390    -3.6870 h1         1 8AM      -0.000967
     53 H23          2.3040     2.0040    -0.1210 hn         1 8AM       0.177500
     54 H24          2.0650     3.2810    -2.4970 hc         1 8AM       0.024700
     55 H25          3.7210     2.6910    -2.2970 hc         1 8AM       0.024700
     56 H26          3.5080     1.3780    -4.3790 hc         1 8AM       0.009367
     57 H27          3.2030     3.0940    -4.6830 hc         1 8AM       0.009367
     58 H28          1.8490     1.9600    -4.5790 hc         1 8AM       0.009367
     59 H8          -2.5520     0.5340    -0.8980 h4         1 8AM       0.206000
     60 C26         -2.6970     1.9810    -3.3790 c3         1 8AM       0.028600
@<TRIPOS>BOND
     1     1    10 1   
     2     1    13 1   
     3     1    32 1   
     4     1    33 1   
     5     2    13 1   
     6     2    14 ar  
     7     2    16 ar  
     8     3    14 ar  
     9     3    15 ar  
    10     3    19 1   
    11     4     5 1   
    12     4    15 ar  
    13     4    16 ar  
    14     5     6 1   
    15     5     7 1   
    16     6    17 2   
    17     6    34 1   
    18     7     8 1   
    19     7    18 1   
    20     7    35 1   
    21     8    36 1   
    22     8    37 1   
    23     8    38 1   
    24     9    20 2   
    25     9    21 1   
    26     9    59 1   
    27    10    11 1   
    28    10    27 1   
    29    10    42 1   
    30    11    12 1   
    31    11    26 1   
    32    11    43 1   
    33    12    13 1   
    34    12    44 1   
    35    12    45 1   
    36    15    17 1   
    37    18    46 1   
    38    18    47 1   
    39    18    48 1   
    40    19    20 1   
    41    19    49 1   
    42    20    23 1   
    43    21    22 1   
    44    21    60 1   
    45    22    23 2   
    46    23    24 1   
    47    24    25 1   
    48    25    50 1   
    49    25    51 1   
    50    25    52 1   
    51    27    28 1   
    52    27    53 1   
    53    28    29 1   
    54    28    31 2   
    55    29    30 1   
    56    29    54 1   
    57    29    55 1   
    58    30    56 1   
    59    30    57 1   
    60    30    58 1   
    61    39    60 1   
    62    40    60 1   
    63    41    60 1   
@<TRIPOS>SUBSTRUCTURE
     1 8AM         1 TEMP              0 ****  ****    0 ROOT
