@<TRIPOS>MOLECULE
8AO
   70    74     1     0     0
SMALL
bcc


@<TRIPOS>ATOM
      1 C2           0.0000     0.0000     0.0000 c2         1 8AO      -0.144900
      2 C3           1.3490     0.0000     0.0000 ce         1 8AO       0.157100
      3 C4           2.1710     0.0000     1.2650 c3         1 8AO       0.177800
      4 C5           1.2540     0.3010     2.4210 cc         1 8AO      -0.398600
      5 C6          -0.1530     0.2880     2.2910 cc         1 8AO       0.562600
      6 C8           2.0320     0.0010    -1.2590 cg         1 8AO       0.087500
      7 C10          1.5520     0.6130     3.6920 cd         1 8AO      -0.168600
      8 C12          2.9350     0.7420     4.2750 c3         1 8AO       0.075200
      9 C13          3.2590     1.0720     1.1740 c3         1 8AO      -0.075700
     10 C14          4.1510     0.7930    -0.0370 c3         1 8AO      -0.022600
     11 C15          2.8050    -1.3530     1.4580 ca         1 8AO      -0.094300
     12 C16          4.1650    -1.4510     1.6950 ca         1 8AO      -0.065000
     13 C17          4.7540    -2.6900     1.8730 ca         1 8AO      -0.171300
     14 C18          3.9870    -3.8360     1.8140 ca         1 8AO      -0.033000
     15 C19          2.6180    -3.7440     1.5760 cp         1 8AO      -0.014000
     16 C20          2.0290    -2.4930     1.4030 ca         1 8AO      -0.136000
     17 O52         -2.0020    -8.4540     1.6100 o          1 8AO      -0.519300
     18 O51         -0.1910    -9.8400     2.3100 o          1 8AO      -0.519300
     19 C56         -0.4560    -9.3510    -0.4550 c3         1 8AO       0.190700
     20 C57         -1.3010   -10.5650    -0.3530 ca         1 8AO      -0.090300
     21 C62         -2.5080   -10.7630    -0.6730 ca         1 8AO      -0.087000
     22 C61         -3.4710   -11.8450    -0.6480 ca         1 8AO      -0.115500
     23 C60         -2.6750   -12.7940    -0.1090 ca         1 8AO      -0.091000
     24 C59         -1.4560   -12.8540     0.2930 ca         1 8AO      -0.115500
     25 C58         -0.6390   -11.6900     0.1970 ca         1 8AO      -0.087000
     26 C41          0.2410    -7.2650     1.3940 ca         1 8AO      -0.160500
     27 C40          1.6010    -7.3630     1.6300 ca         1 8AO       0.023500
     28 C39          2.3770    -6.2230     1.6900 ca         1 8AO      -0.122500
     29 C42         -0.3470    -6.0270     1.2110 ca         1 8AO       0.023500
     30 C43          0.4190    -4.8810     1.2690 ca         1 8AO      -0.122500
     31 C32          1.7890    -4.9730     1.5120 cp         1 8AO       0.006000
     32 C33          6.2360    -2.7890     2.1300 c3         1 8AO       0.640200
     33 F49          6.4740    -2.7360     3.5070 f          1 8AO      -0.198967
     34 F48          6.7190    -3.9970     1.6180 f          1 8AO      -0.198967
     35 F47          6.8900    -1.7220     1.5030 f          1 8AO      -0.198967
     36 C34          2.6070     2.4480     1.0200 c3         1 8AO      -0.022600
     37 N9           2.5750    -0.0170    -2.2560 n1         1 8AO      -0.235800
     38 N7          -0.6390    -0.0040    -1.2150 nz         1 8AO       0.290600
     39 N54          0.3860     0.7930     4.3540 na         1 8AO       0.490400
     40 N11         -0.6670     0.5810     3.4500 nd         1 8AO      -0.599800
     41 O1          -0.7650    -0.0020     1.1100 os         1 8AO      -0.261400
     42 H1           3.5170    -0.1360     4.0210 hc         1 8AO       0.030033
     43 H2           2.8660     0.8290     5.3530 hc         1 8AO       0.030033
     44 H3           3.4170     1.6240     3.8720 hc         1 8AO       0.030033
     45 H4           3.9470     0.9590     2.0020 hc         1 8AO       0.066700
     46 H5           3.7970     1.3650    -0.8860 hc         1 8AO       0.019367
     47 H6           4.1170    -0.2640    -0.2750 hc         1 8AO       0.019367
     48 H7           5.1700     1.0790     0.1910 hc         1 8AO       0.019367
     49 H8           4.7660    -0.5540     1.7800 ha         1 8AO       0.147000
     50 H9           4.4480    -4.8040     1.9680 ha         1 8AO       0.139000
     51 H10          1.1290    -2.4410     2.0040 ha         1 8AO       0.141000
     52 H11          0.5750    -9.6090    -0.6630 h1         1 8AO       0.052200
     53 H12         -0.8480    -8.6630    -1.1940 h1         1 8AO       0.052200
     54 H13         -3.0450    -9.8250    -0.7470 ha         1 8AO       0.110500
     55 H14         -3.9640   -12.1530    -1.5620 ha         1 8AO       0.138000
     56 H15         -3.2430   -13.6260     0.2870 ha         1 8AO       0.078000
     57 H16         -0.8180   -13.6670    -0.0330 ha         1 8AO       0.138000
     58 H17          0.2610   -12.0300     0.6950 ha         1 8AO       0.110500
     59 H18          2.0560    -8.3350     1.7790 ha         1 8AO       0.131000
     60 H19          3.4360    -6.3000     1.9030 ha         1 8AO       0.114500
     61 H20         -1.4130    -5.9540     1.0320 ha         1 8AO       0.131000
     62 H21         -0.0400    -3.9130     1.1080 ha         1 8AO       0.114500
     63 H22          2.1520     2.7390     1.9590 hc         1 8AO       0.019367
     64 H23          1.8470     2.4040     0.2490 hc         1 8AO       0.019367
     65 H24          3.3610     3.1760     0.7440 hc         1 8AO       0.019367
     66 H25         -1.6270    -0.0640    -1.0730 hn         1 8AO       0.221467
     67 H26         -0.3310    -0.7920    -1.7510 hn         1 8AO       0.221467
     68 H27          0.2900     1.0300     5.3220 hn         1 8AO       0.173700
     69 H73         -0.4980     0.8760    -1.6690 hn         1 8AO       0.221467
     70 S44         -0.6520    -8.6430     1.3330 sy         1 8AO       0.635300
@<TRIPOS>BOND
     1     1     2 2   
     2     1    38 1   
     3     1    41 1   
     4     2     3 1   
     5     2     6 1   
     6     3     4 1   
     7     3     9 1   
     8     3    11 1   
     9     4     5 1   
    10     4     7 2   
    11     5    40 2   
    12     5    41 1   
    13     6    37 3   
    14     7     8 1   
    15     7    39 1   
    16     8    42 1   
    17     8    43 1   
    18     8    44 1   
    19     9    10 1   
    20     9    36 1   
    21     9    45 1   
    22    10    46 1   
    23    10    47 1   
    24    10    48 1   
    25    11    12 ar  
    26    11    16 ar  
    27    12    13 ar  
    28    12    49 1   
    29    13    14 ar  
    30    13    32 1   
    31    14    15 ar  
    32    14    50 1   
    33    15    16 ar  
    34    15    31 1   
    35    16    51 1   
    36    17    70 2   
    37    18    70 2   
    38    19    20 1   
    39    19    52 1   
    40    19    53 1   
    41    19    70 1   
    42    20    21 ar  
    43    20    25 ar  
    44    21    22 ar  
    45    21    54 1   
    46    22    23 ar  
    47    22    55 1   
    48    23    24 ar  
    49    23    56 1   
    50    24    25 ar  
    51    24    57 1   
    52    25    58 1   
    53    26    27 ar  
    54    26    29 ar  
    55    26    70 1   
    56    27    28 ar  
    57    27    59 1   
    58    28    31 ar  
    59    28    60 1   
    60    29    30 ar  
    61    29    61 1   
    62    30    31 ar  
    63    30    62 1   
    64    32    33 1   
    65    32    34 1   
    66    32    35 1   
    67    36    63 1   
    68    36    64 1   
    69    36    65 1   
    70    38    66 1   
    71    38    67 1   
    72    38    69 1   
    73    39    40 1   
    74    39    68 1   
@<TRIPOS>SUBSTRUCTURE
     1 8AO         1 TEMP              0 ****  ****    0 ROOT
