@<TRIPOS>MOLECULE
8AP
   28    29     1     0     0
SMALL
bcc


@<TRIPOS>ATOM
      1 N1           0.0000     0.0000     0.0000 nv         1 8AP      -0.667500
      2 C2           1.4180     0.0000     0.0000 ca         1 8AP       0.406200
      3 N3           2.0450     0.0000     1.1980 nb         1 8AP      -0.540000
      4 C4           3.3960     0.0010     1.1680 ca         1 8AP       0.331200
      5 C5           4.1460     0.0000     0.0020 ca         1 8AP      -0.162300
      6 C6           3.4660     0.0000    -1.2100 ca         1 8AP      -0.174000
      7 C7           2.0650    -0.0000    -1.2370 ca         1 8AP      -0.036700
      8 N8           1.3840     0.0010    -2.4460 nu         1 8AP      -0.390600
      9 C9           2.0330     0.0030    -3.7320 c3         1 8AP       0.224100
     10 C10          1.0590     0.0650    -4.8590 ca         1 8AP      -0.121300
     11 C11          0.5550    -1.1120    -5.4110 ca         1 8AP      -0.082000
     12 C12         -0.3560    -1.0540    -6.4660 ca         1 8AP      -0.102000
     13 C13         -0.7650     0.1820    -6.9670 ca         1 8AP      -0.091000
     14 C14         -0.2610     1.3600    -6.4150 ca         1 8AP      -0.102000
     15 C15          0.6510     1.3010    -5.3600 ca         1 8AP      -0.082000
     16 HN11        -0.5000     0.8670     0.0230 hn         1 8AP       0.270800
     17 HN12        -0.5000    -0.8670     0.0240 hn         1 8AP       0.270800
     18 H4           3.9260     0.0000     2.1130 h4         1 8AP      -0.026900
     19 H5           5.2290     0.0010     0.0350 ha         1 8AP       0.111000
     20 H6           4.0220     0.0000    -2.1390 ha         1 8AP       0.112000
     21 HN8          0.3840     0.0010    -2.4230 hn         1 8AP       0.293800
     22 H91          2.6920     0.8610    -3.7910 h1         1 8AP       0.013200
     23 H92          2.6240    -0.9000    -3.8290 h1         1 8AP       0.013200
     24 H11          0.8720    -2.0720    -5.0220 ha         1 8AP       0.108000
     25 H12         -0.7480    -1.9680    -6.8950 ha         1 8AP       0.105500
     26 H13         -1.4720     0.2270    -7.7860 ha         1 8AP       0.104000
     27 H14         -0.5780     2.3210    -6.8040 ha         1 8AP       0.105500
     28 H15          1.0420     2.2150    -4.9310 ha         1 8AP       0.108000
@<TRIPOS>BOND
     1     1     2 1   
     2     1    16 1   
     3     1    17 1   
     4     2     3 ar  
     5     2     7 ar  
     6     3     4 ar  
     7     4     5 ar  
     8     4    18 1   
     9     5     6 ar  
    10     5    19 1   
    11     6     7 ar  
    12     6    20 1   
    13     7     8 1   
    14     8     9 1   
    15     8    21 1   
    16     9    10 1   
    17     9    22 1   
    18     9    23 1   
    19    10    11 ar  
    20    10    15 ar  
    21    11    12 ar  
    22    11    24 1   
    23    12    13 ar  
    24    12    25 1   
    25    13    14 ar  
    26    13    26 1   
    27    14    15 ar  
    28    14    27 1   
    29    15    28 1   
@<TRIPOS>SUBSTRUCTURE
     1 8AP         1 TEMP              0 ****  ****    0 ROOT
