@<TRIPOS>MOLECULE
8AS
   23    23     1     0     0
SMALL
bcc


@<TRIPOS>ATOM
      1 O1           0.0000     0.0000     0.0000 o          1 8AS      -0.904800
      2 N3           1.7040    -0.0000     3.7390 n3         1 8AS      -0.550600
      3 C13          1.2080     0.0000     0.0000 c          1 8AS       0.981600
      4 C14          1.9620     0.0000     1.3050 c3         1 8AS      -0.140400
      5 C15          0.9690    -0.0000     2.4680 c3         1 8AS       0.160800
      6 C16          0.7970    -0.2390     4.8720 c3         1 8AS       0.109800
      7 C17          1.6110    -0.2910     6.1680 c3         1 8AS       0.211400
      8 C18          3.2410     1.1910     5.2270 c3         1 8AS       0.211400
      9 C19          2.4440     1.2570     3.9210 c3         1 8AS       0.109800
     10 O            2.3470     0.9270     6.3120 os         1 8AS      -0.427600
     11 H16          2.5850    -0.8840     1.3620 hc         1 8AS       0.012200
     12 H17          2.5850     0.8850     1.3620 hc         1 8AS       0.012200
     13 H18          0.3460     0.8840     2.4110 h1         1 8AS       0.018200
     14 H19          0.3460    -0.8850     2.4110 h1         1 8AS       0.018200
     15 H20          0.2840    -1.1830     4.7300 h1         1 8AS       0.018200
     16 H21          0.0750     0.5660     4.9320 h1         1 8AS       0.018200
     17 H22          0.9400    -0.4080     7.0100 h1         1 8AS       0.002700
     18 H23          2.2990    -1.1260     6.1280 h1         1 8AS       0.002700
     19 H24          3.9730     0.3950     5.1620 h1         1 8AS       0.002700
     20 H25          3.7400     2.1370     5.3930 h1         1 8AS       0.002700
     21 H26          3.1240     1.3980     3.0900 h1         1 8AS       0.018200
     22 H27          1.7440     2.0830     3.9670 h1         1 8AS       0.018200
     23 OXT          1.8790     0.0010    -1.1630 o          1 8AS      -0.904800
@<TRIPOS>BOND
     1     1     3 1   
     2     2     5 1   
     3     2     6 1   
     4     2     9 1   
     5     3     4 1   
     6     3    23 1   
     7     4     5 1   
     8     4    11 1   
     9     4    12 1   
    10     5    13 1   
    11     5    14 1   
    12     6     7 1   
    13     6    15 1   
    14     6    16 1   
    15     7    10 1   
    16     7    17 1   
    17     7    18 1   
    18     8     9 1   
    19     8    10 1   
    20     8    19 1   
    21     8    20 1   
    22     9    21 1   
    23     9    22 1   
@<TRIPOS>SUBSTRUCTURE
     1 8AS         1 TEMP              0 ****  ****    0 ROOT
