@<TRIPOS>MOLECULE
molecule
   54    57     1     0     0
SMALL
bcc


@<TRIPOS>ATOM
      1 C4           0.0000     0.0000     0.0000 c3         1 8AU       0.147800
      2 C6           0.4070    -0.2910     2.5070 cc         1 8AU       0.546600
      3 C8           2.1910     0.0020    -1.2590 cg         1 8AU       0.127500
      4 C15         -0.0270    -0.7640    -2.3780 c3         1 8AU      -0.101100
      5 C17         -1.4540     1.4520    -1.4300 ca         1 8AU      -0.077000
      6 C22          0.0020     4.9720     0.4600 cp         1 8AU      -0.061000
      7 C2           2.2440     0.0000     1.1310 c2         1 8AU       0.109100
      8 C3           1.5090     0.0000     0.0000 ce         1 8AU       0.060100
      9 N9           2.7390     0.0220    -2.2540 n1         1 8AU      -0.250800
     10 C14         -0.5160    -1.0720    -0.9620 c3         1 8AU      -0.078700
     11 C18         -1.9290     2.6910    -1.8210 ca         1 8AU      -0.172300
     12 C25          0.4500     6.0440    -0.3120 ca         1 8AU       0.036400
     13 C26          0.9200     7.1870     0.3040 ca         1 8AU      -0.113000
     14 C27          0.9460     7.2700     1.6840 ca         1 8AU      -0.103000
     15 C28          0.5030     6.2100     2.4550 ca         1 8AU      -0.124000
     16 C29          0.0310     5.0620     1.8500 ca         1 8AU      -0.110000
     17 C20         -0.5090     3.7430    -0.1960 cp         1 8AU      -0.025000
     18 C19         -1.4610     3.8360    -1.2090 ca         1 8AU      -0.040000
     19 C23         -2.9590     2.7890    -2.9170 c3         1 8AU       0.677200
     20 F32         -4.2410     2.7340    -2.3590 f          1 8AU      -0.214967
     21 F31         -2.7990     4.0000    -3.5990 f          1 8AU      -0.214967
     22 F30         -2.7930     1.7260    -3.8100 f          1 8AU      -0.214967
     23 C21         -0.0300     2.4930     0.1900 ca         1 8AU      -0.090000
     24 C16         -0.5080     1.3540    -0.4250 ca         1 8AU      -0.112300
     25 C24          0.0080    -2.4420    -0.5280 c3         1 8AU      -0.101100
     26 N7           3.6110     0.0040     1.0030 nz         1 8AU      -0.659400
     27 C5          -0.4690    -0.3040     1.4000 cc         1 8AU      -0.368600
     28 C10         -1.6950    -0.6180     1.8420 cd         1 8AU       0.012400
     29 C13         -2.9390    -0.7470     1.0000 c3         1 8AU      -0.043800
     30 N11         -1.6150    -0.7990     3.1810 na         1 8AU      -0.017600
     31 N12         -0.2830    -0.5880     3.5700 nd         1 8AU      -0.451800
     32 O1           1.7310    -0.0070     2.3770 os         1 8AU      -0.301400
     33 H1           0.8860    -1.3140    -2.5730 hc         1 8AU       0.047367
     34 H2          -0.7850    -1.0580    -3.0940 hc         1 8AU       0.047367
     35 H3           0.1650     0.2980    -2.4710 hc         1 8AU       0.047367
     36 H4          -1.8530     0.5520    -1.8820 ha         1 8AU       0.158000
     37 H5          -1.5920    -0.9840    -1.0570 hc         1 8AU       0.082700
     38 H6           1.2730     8.0190    -0.2930 ha         1 8AU       0.158000
     39 H7           1.3160     8.1670     2.1660 ha         1 8AU       0.150000
     40 H8           0.5370     6.2740     3.5360 ha         1 8AU       0.144000
     41 H9          -0.3450     4.2440     2.4530 ha         1 8AU       0.138000
     42 H10         -1.8720     4.8010    -1.4810 ha         1 8AU       0.174000
     43 H11          0.6980     2.4150     0.9890 ha         1 8AU       0.127000
     44 H12         -0.4830    -2.7420     0.3900 hc         1 8AU       0.047367
     45 H13         -0.2000    -3.1700    -1.3030 hc         1 8AU       0.047367
     46 H14          1.0770    -2.3840    -0.3630 hc         1 8AU       0.047367
     47 H15          4.0300     0.0670     1.9100 hn         1 8AU       0.476133
     48 H16          3.8920     0.7900     0.4510 hn         1 8AU       0.476133
     49 H17         -3.0380     0.1270     0.3670 hc         1 8AU       0.071033
     50 H18         -3.8050    -0.8250     1.6460 hc         1 8AU       0.071033
     51 H19         -2.8670    -1.6340     0.3830 hc         1 8AU       0.071033
     52 H20         -2.3740    -1.0370     3.7880 hn         1 8AU       0.362700
     53 Cl3          0.4170     5.9410    -2.0450 cl         1 8AU      -0.090400
     54 H73          3.8960    -0.7780     0.4480 hn         1 8AU       0.476133
@<TRIPOS>BOND
     1    21    19 1   
     2     9     3 3   
     3    22    19 1   
     4    19    20 1   
     5    19    11 1   
     6     3     8 1   
     7    11     5 ar  
     8    11    18 ar  
     9     5    24 ar  
    10    26     7 1   
    11     8     7 2   
    12     8     1 1   
    13    10    25 1   
    14    10     4 1   
    15    10     1 1   
    16     7    32 1   
    17    18    17 ar  
    18    24     1 1   
    19    24    23 ar  
    20     1    27 1   
    21    32     2 1   
    22    17    23 ar  
    23    17     6 1   
    24    27     2 1   
    25    27    28 2   
    26    16     6 ar  
    27    16    15 ar  
    28     2    31 2   
    29     6    12 ar  
    30    28    29 1   
    31    28    30 1   
    32    15    14 ar  
    33    31    30 1   
    34    12    53 1   
    35    12    13 ar  
    36    14    13 ar  
    37     4    33 1   
    38     4    34 1   
    39     4    35 1   
    40     5    36 1   
    41    10    37 1   
    42    13    38 1   
    43    14    39 1   
    44    15    40 1   
    45    16    41 1   
    46    18    42 1   
    47    23    43 1   
    48    25    44 1   
    49    25    45 1   
    50    25    46 1   
    51    26    47 1   
    52    26    48 1   
    53    29    49 1   
    54    29    50 1   
    55    29    51 1   
    56    30    52 1   
    57    54    26 1   
@<TRIPOS>SUBSTRUCTURE
     1 8AU         1 TEMP              0 ****  ****    0 ROOT
