@<TRIPOS>MOLECULE
molecule
   30    30     1     0     0
SMALL
bcc


@<TRIPOS>ATOM
      1 N1           0.0000     0.0000     0.0000 nz         1 8AV      -0.826600
      2 N2           1.3930    -1.1340     2.1690 nz         1 8AV      -0.830600
      3 C11          1.4690     0.0000     0.0000 c3         1 8AV       0.078500
      4 C12          1.9790     0.0000     1.4420 c3         1 8AV       0.073800
      5 C20          1.9790     1.2490    -0.7220 c3         1 8AV      -0.099700
      6 C25          1.4690     1.2480    -2.1650 c3         1 8AV      -0.081900
      7 C24          1.9790     2.4970    -2.8870 c3         1 8AV      -0.073900
      8 C23          3.5080     2.4970    -2.8870 c3         1 8AV      -0.086400
      9 C22          4.0190     2.4980    -1.4440 c3         1 8AV      -0.073900
     10 C21          3.5090     1.2490    -0.7230 c3         1 8AV      -0.081900
     11 H2          -0.3340     0.8280     0.4520 hn         1 8AV       0.467133
     12 H6           1.9490    -1.3360     2.9760 hn         1 8AV       0.472467
     13 H13          1.8300    -0.8850    -0.5100 hx         1 8AV       0.138700
     14 H14          1.6930     0.9260     1.9260 hx         1 8AV       0.157200
     15 H15          3.0580    -0.0890     1.4430 hx         1 8AV       0.157200
     16 H38          1.6210     2.1370    -0.2150 hc         1 8AV       0.086700
     17 H39          1.8330     0.3640    -2.6750 hc         1 8AV       0.047200
     18 H40          0.3860     1.2510    -2.1640 hc         1 8AV       0.047200
     19 H41          1.6190     3.3810    -2.3740 hc         1 8AV       0.074950
     20 H42          1.6190     2.4940    -3.9080 hc         1 8AV       0.074950
     21 H43          3.8680     3.3830    -3.3960 hc         1 8AV       0.076700
     22 H44          3.8680     1.6100    -3.3960 hc         1 8AV       0.076700
     23 H45          5.1020     2.4950    -1.4460 hc         1 8AV       0.074950
     24 H46          3.6550     3.3820    -0.9340 hc         1 8AV       0.074950
     25 H47          3.8690     1.2520     0.2990 hc         1 8AV       0.047200
     26 H48          3.8680     0.3650    -1.2360 hc         1 8AV       0.047200
     27 H1           0.4620    -0.9020     2.4550 hn         1 8AV       0.472467
     28 H3          -0.3340    -0.8060     0.4910 hn         1 8AV       0.467133
     29 H131        -0.3340    -0.0230    -0.9430 hn         1 8AV       0.467133
     30 H23          1.3680    -1.9370     1.5710 hn         1 8AV       0.472467
@<TRIPOS>BOND
     1     4     2 1   
     2     4     3 1   
     3    10     9 1   
     4    10     5 1   
     5     9     8 1   
     6     3     5 1   
     7     3     1 1   
     8     5     6 1   
     9     8     7 1   
    10     6     7 1   
    11     1    11 1   
    12     2    12 1   
    13     3    13 1   
    14     4    14 1   
    15     4    15 1   
    16     5    16 1   
    17     6    17 1   
    18     6    18 1   
    19     7    19 1   
    20     7    20 1   
    21     8    21 1   
    22     8    22 1   
    23     9    23 1   
    24     9    24 1   
    25    10    25 1   
    26    10    26 1   
    27     2    27 1   
    28     1    28 1   
    29    29     1 1   
    30    30     2 1   
@<TRIPOS>SUBSTRUCTURE
     1 8AV         1 TEMP              0 ****  ****    0 ROOT
