@<TRIPOS>MOLECULE
8AW
   70    72     1     0     0
SMALL
bcc


@<TRIPOS>ATOM
      1 O06          0.0000     0.0000     0.0000 o          1 8AW      -0.629100
      2 C05          1.2130     0.0000     0.0000 c          1 8AW       0.574100
      3 C03          1.9670     0.0000     1.3040 c3         1 8AW      -0.123700
      4 C02          0.9730     0.0010     2.4680 c3         1 8AW      -0.014400
      5 C01          1.7340    -0.1250     3.7880 c3         1 8AW      -0.001100
      6 C04          2.8470     1.2490     1.3850 c3         1 8AW      -0.000100
      7 N07          1.8860    -0.0060    -1.1680 ns         1 8AW      -0.206900
      8 C08          1.1520    -0.0120    -2.4370 c3         1 8AW       0.021700
      9 C29          0.7890     1.4230    -2.8220 c3         1 8AW       0.016900
     10 C30         -0.1730     1.9880    -1.8090 ca         1 8AW      -0.078300
     11 C31         -1.5340     1.8340    -1.9880 ca         1 8AW      -0.093500
     12 C32         -2.4170     2.3530    -1.0580 ca         1 8AW      -0.091500
     13 C33         -1.9370     3.0230     0.0510 ca         1 8AW      -0.097000
     14 C34         -0.5750     3.1760     0.2310 ca         1 8AW      -0.091500
     15 C35          0.3070     2.6530    -0.6970 ca         1 8AW      -0.093500
     16 C09          2.0280    -0.6280    -3.5290 c3         1 8AW      -0.046400
     17 C10          2.2890    -2.1000    -3.2050 c3         1 8AW      -0.044400
     18 C11          3.1650    -2.7160    -4.2980 c3         1 8AW       0.030700
     19 C12          3.3230    -4.2160    -4.0410 c3         1 8AW       0.012900
     20 C13          4.0820    -4.8440    -5.1810 ca         1 8AW      -0.080300
     21 C14          3.4000    -5.3330    -6.2790 ca         1 8AW      -0.091500
     22 C15          4.0970    -5.9040    -7.3280 ca         1 8AW      -0.092000
     23 C16          5.4750    -5.9860    -7.2780 ca         1 8AW      -0.097000
     24 C17          6.1580    -5.4960    -6.1810 ca         1 8AW      -0.092000
     25 C18          5.4610    -4.9250    -5.1320 ca         1 8AW      -0.091500
     26 N19          4.4840    -2.0770    -4.2840 ns         1 8AW      -0.171900
     27 C20          5.2350    -2.0580    -5.4020 c          1 8AW       0.677100
     28 O21          4.8190    -2.5720    -6.4230 o          1 8AW      -0.646000
     29 O22          6.4470    -1.4710    -5.3910 os         1 8AW      -0.425900
     30 C23          7.2010    -1.4890    -6.6310 c3         1 8AW       0.345700
     31 C24          8.5200    -0.7910    -6.4270 cc         1 8AW      -0.131700
     32 C25          9.6610    -1.3660    -6.0320 cd         1 8AW       0.375200
     33 N26         10.6820    -0.5390    -5.9270 nd         1 8AW      -0.569000
     34 C27         10.4660     0.7010    -6.2120 cc         1 8AW       0.475300
     35 S28          8.8350     0.9250    -6.6740 ss         1 8AW      -0.300300
     36 H1           2.5890    -0.8850     1.3610 hc         1 8AW       0.035700
     37 H2           0.2930    -0.8350     2.3620 hc         1 8AW       0.030700
     38 H3           0.4110     0.9270     2.4620 hc         1 8AW       0.030700
     39 H4           2.5070    -0.8780     3.6900 hc         1 8AW       0.000700
     40 H5           1.0470    -0.4130     4.5750 hc         1 8AW       0.000700
     41 H6           2.1880     0.8270     4.0360 hc         1 8AW       0.000700
     42 H7           3.1660     1.5300     0.3890 hc         1 8AW       0.009033
     43 H8           3.7150     1.0390     1.9970 hc         1 8AW       0.009033
     44 H9           2.2810     2.0610     1.8260 hc         1 8AW       0.009033
     45 H10          2.8870    -0.0370    -1.1690 hn         1 8AW       0.174500
     46 H11          0.2470    -0.5960    -2.3270 h1         1 8AW       0.063700
     47 H12          0.3250     1.4270    -3.8010 hc         1 8AW       0.022200
     48 H13          1.6860     2.0290    -2.8450 hc         1 8AW       0.022200
     49 H14         -1.9110     1.3090    -2.8570 ha         1 8AW       0.100000
     50 H15         -3.4840     2.2330    -1.1980 ha         1 8AW       0.098000
     51 H16         -2.6280     3.4310     0.7790 ha         1 8AW       0.098000
     52 H17         -0.1990     3.7000     1.1010 ha         1 8AW       0.098000
     53 H18          1.3740     2.7730    -0.5560 ha         1 8AW       0.100000
     54 H19          2.9710    -0.0960    -3.5790 hc         1 8AW       0.027200
     55 H20          1.5210    -0.5520    -4.4840 hc         1 8AW       0.027200
     56 H21          2.7970    -2.1750    -2.2510 hc         1 8AW       0.027700
     57 H22          1.3470    -2.6310    -3.1560 hc         1 8AW       0.027700
     58 H23          2.6990    -2.5620    -5.2640 h1         1 8AW       0.066700
     59 H24          3.8670    -4.3690    -3.1170 hc         1 8AW       0.023700
     60 H25          2.3440    -4.6740    -3.9640 hc         1 8AW       0.023700
     61 H26          2.3190    -5.2690    -6.3190 ha         1 8AW       0.099000
     62 H27          3.5620    -6.2880    -8.1890 ha         1 8AW       0.098500
     63 H28          6.0210    -6.4340    -8.0990 ha         1 8AW       0.099000
     64 H29          7.2390    -5.5600    -6.1420 ha         1 8AW       0.098500
     65 H30          5.9960    -4.5410    -4.2720 ha         1 8AW       0.099000
     66 H31          4.8410    -1.6830    -3.4360 hn         1 8AW       0.173500
     67 H32          6.6380    -0.9780    -7.4030 h1         1 8AW       0.023200
     68 H33          7.3770    -2.5150    -6.9320 h1         1 8AW       0.023200
     69 H34          9.7400    -2.4240    -5.8160 h4         1 8AW       0.004100
     70 H35         11.2120     1.4860    -6.1700 h5         1 8AW       0.025100
@<TRIPOS>BOND
     1     1     2 2   
     2     2     3 1   
     3     2     7 1   
     4     3     4 1   
     5     3     6 1   
     6     3    36 1   
     7     4     5 1   
     8     4    37 1   
     9     4    38 1   
    10     5    39 1   
    11     5    40 1   
    12     5    41 1   
    13     6    42 1   
    14     6    43 1   
    15     6    44 1   
    16     7     8 1   
    17     7    45 1   
    18     8     9 1   
    19     8    16 1   
    20     8    46 1   
    21     9    10 1   
    22     9    47 1   
    23     9    48 1   
    24    10    11 ar  
    25    10    15 ar  
    26    11    12 ar  
    27    11    49 1   
    28    12    13 ar  
    29    12    50 1   
    30    13    14 ar  
    31    13    51 1   
    32    14    15 ar  
    33    14    52 1   
    34    15    53 1   
    35    16    17 1   
    36    16    54 1   
    37    16    55 1   
    38    17    18 1   
    39    17    56 1   
    40    17    57 1   
    41    18    19 1   
    42    18    26 1   
    43    18    58 1   
    44    19    20 1   
    45    19    59 1   
    46    19    60 1   
    47    20    21 ar  
    48    20    25 ar  
    49    21    22 ar  
    50    21    61 1   
    51    22    23 ar  
    52    22    62 1   
    53    23    24 ar  
    54    23    63 1   
    55    24    25 ar  
    56    24    64 1   
    57    25    65 1   
    58    26    27 1   
    59    26    66 1   
    60    27    28 2   
    61    27    29 1   
    62    29    30 1   
    63    30    31 1   
    64    30    67 1   
    65    30    68 1   
    66    31    32 2   
    67    31    35 1   
    68    32    33 1   
    69    32    69 1   
    70    33    34 2   
    71    34    35 1   
    72    34    70 1   
@<TRIPOS>SUBSTRUCTURE
     1 8AW         1 TEMP              0 ****  ****    0 ROOT
