@<TRIPOS>MOLECULE
molecule
   56    58     1     0     0
SMALL
bcc


@<TRIPOS>ATOM
      1 N01          0.0000     0.0000     0.0000 nb         1 8AX      -0.751000
      2 C02          1.3240     0.0000     0.0000 ca         1 8AX       0.697200
      3 N02          2.0130     0.0000    -1.2080 nv         1 8AX      -1.044500
      4 C03          2.0320     0.0000     1.1970 ca         1 8AX      -0.303300
      5 C04          1.3340     0.0000     2.3910 ca         1 8AX      -0.022300
      6 C05         -0.0530     0.0000     2.3480 ca         1 8AX      -0.290300
      7 C06         -0.6920     0.0010     1.1240 ca         1 8AX       0.460600
      8 C07          2.0630     0.0000     3.7100 c3         1 8AX      -0.049800
      9 C08         -2.1980     0.0010     1.0700 c3         1 8AX      -0.111700
     10 O09         -4.7580     0.0610     0.8310 os         1 8AX      -0.408600
     11 N1'         -3.4970     3.3970     0.6370 n7         1 8AX      -0.792200
     12 C10         -5.9810    -0.4410     0.2880 c3         1 8AX       0.140400
     13 C11         -6.4660    -1.6220     1.1320 c3         1 8AX       0.159800
     14 N12         -6.8050    -1.1530     2.4820 n7         1 8AX      -0.801200
     15 C13         -7.2760    -2.2620     3.3220 c3         1 8AX       0.119800
     16 C14         -7.6180    -1.7360     4.7170 c3         1 8AX       0.464900
     17 F15         -6.4770    -1.1670     5.2930 f          1 8AX      -0.226800
     18 F16         -8.6220    -0.7680     4.6170 f          1 8AX      -0.226800
     19 C2'         -2.3350     2.5160     0.9230 c3         1 8AX       0.139800
     20 C21         -8.1000    -2.8740     5.5790 ca         1 8AX      -0.150300
     21 C22         -9.4460    -3.1900     5.6160 ca         1 8AX      -0.093000
     22 C23         -9.8890    -4.2350     6.4070 ca         1 8AX       0.024400
     23 Cl23       -11.5790    -4.6330     6.4520 cl         1 8AX      -0.101400
     24 C24         -8.9870    -4.9620     7.1610 ca         1 8AX      -0.106000
     25 C25         -7.6410    -4.6440     7.1230 ca         1 8AX      -0.123000
     26 C26         -7.1970    -3.6050     6.3290 ca         1 8AX      -0.094000
     27 C3'         -2.6780     1.1820     0.2260 c3         1 8AX      -0.061700
     28 C4'         -4.2160     1.1720     0.1130 c3         1 8AX       0.135100
     29 C5'         -4.6750     2.5000     0.7540 c3         1 8AX       0.111800
     30 HN02         1.7130    -0.5940    -1.9550 hn         1 8AX       0.436300
     31 HN0A         2.8060     0.5980    -1.3320 hn         1 8AX       0.436300
     32 H03          3.1150     0.0000     1.1940 ha         1 8AX       0.136000
     33 H05         -0.6290     0.0010     3.2650 ha         1 8AX       0.139000
     34 H07          3.0980     0.2780     3.5500 hc         1 8AX       0.046367
     35 H07A         2.0180    -0.9900     4.1470 hc         1 8AX       0.046367
     36 H07B         1.5980     0.7130     4.3800 hc         1 8AX       0.046367
     37 H08         -2.5430    -0.9250     0.6250 hc         1 8AX       0.068700
     38 H08A        -2.5950     0.0890     2.0740 hc         1 8AX       0.068700
     39 HN1'        -3.5520     4.1130     1.3340 hn         1 8AX       0.346800
     40 H10         -5.8160    -0.7700    -0.7310 h1         1 8AX       0.027200
     41 H10A        -6.7290     0.3420     0.2990 h1         1 8AX       0.027200
     42 H11         -5.6820    -2.3670     1.1950 h1         1 8AX       0.043200
     43 H11A        -7.3430    -2.0590     0.6710 h1         1 8AX       0.043200
     44 HN12        -7.5170    -0.4530     2.4230 hn         1 8AX       0.362800
     45 H13         -8.1590    -2.7030     2.8760 h1         1 8AX       0.056700
     46 H13A        -6.4980    -3.0120     3.4000 h1         1 8AX       0.056700
     47 H2'         -1.4300     2.9380     0.5040 h1         1 8AX       0.045700
     48 H2'A        -2.2300     2.3660     1.9910 h1         1 8AX       0.045700
     49 H22        -10.1580    -2.5900     5.0620 ha         1 8AX       0.156000
     50 H24         -9.3340    -5.7790     7.7820 ha         1 8AX       0.148000
     51 H25         -6.9330    -5.2160     7.7120 ha         1 8AX       0.143000
     52 H26         -6.1430    -3.3570     6.3000 ha         1 8AX       0.151000
     53 H3'         -2.2310     1.1520    -0.7610 hc         1 8AX       0.084700
     54 H4'         -4.5150     1.1370    -0.9270 h1         1 8AX       0.048700
     55 H5'         -4.9290     2.3460     1.7960 h1         1 8AX       0.048200
     56 H5'A        -5.5160     2.9100     0.2100 h1         1 8AX       0.048200
@<TRIPOS>BOND
     1     1     7 ar  
     2     1     2 ar  
     3     3     2 1   
     4     2     4 ar  
     5     3    30 1   
     6     3    31 1   
     7     4     5 ar  
     8     4    32 1   
     9     6     5 ar  
    10     5     8 1   
    11     7     6 ar  
    12     6    33 1   
    13     9     7 1   
    14     8    34 1   
    15     8    35 1   
    16     8    36 1   
    17     9    27 1   
    18     9    37 1   
    19     9    38 1   
    20    12    10 1   
    21    10    28 1   
    22    29    11 1   
    23    19    11 1   
    24    11    39 1   
    25    13    12 1   
    26    12    40 1   
    27    12    41 1   
    28    13    14 1   
    29    13    42 1   
    30    13    43 1   
    31    15    14 1   
    32    14    44 1   
    33    16    15 1   
    34    15    45 1   
    35    15    46 1   
    36    17    16 1   
    37    20    16 1   
    38    16    18 1   
    39    27    19 1   
    40    19    47 1   
    41    19    48 1   
    42    21    20 ar  
    43    20    26 ar  
    44    22    21 ar  
    45    21    49 1   
    46    23    22 1   
    47    22    24 ar  
    48    24    25 ar  
    49    24    50 1   
    50    25    26 ar  
    51    25    51 1   
    52    26    52 1   
    53    28    27 1   
    54    27    53 1   
    55    28    29 1   
    56    28    54 1   
    57    29    55 1   
    58    29    56 1   
@<TRIPOS>SUBSTRUCTURE
     1 8AX         1 TEMP              0 ****  ****    0 ROOT
