@<TRIPOS>MOLECULE
8AY
   34    35     1     0     0
SMALL
bcc


@<TRIPOS>ATOM
      1 C1           0.0000     0.0000     0.0000 c3         1 8AY      -0.000400
      2 C2           1.5300     0.0000     0.0000 c3         1 8AY       0.006400
      3 C3          -0.5020     0.0000     1.4210 ca         1 8AY      -0.059300
      4 C4          -1.2940    -1.0330     1.8710 ca         1 8AY      -0.046000
      5 N           -4.6410     0.5380     6.7860 nz         1 8AY       0.084400
      6 C5          -1.7590    -1.0310     3.1840 ca         1 8AY      -0.014100
      7 C6          -1.4230     0.0150     4.0500 ca         1 8AY       0.044400
      8 C7          -2.6710    -1.2020     5.4730 cc         1 8AY       0.313200
      9 CB          -3.3380    -1.5360     6.7820 c3         1 8AY      -0.006700
     10 CA          -4.7420    -0.9270     6.8070 c3         1 8AY      -0.201500
     11 C           -5.4550    -1.3620     8.0620 c          1 8AY       0.954600
     12 S           -2.7680    -2.1700     4.0700 ss         1 8AY      -0.142100
     13 N1          -1.9600    -0.1560     5.2730 nd         1 8AY      -0.479100
     14 C29         -0.6110     1.0580     3.5610 ca         1 8AY      -0.041000
     15 C30         -0.1620     1.0390     2.2760 ca         1 8AY      -0.086000
     16 C8          -0.5100     1.2490    -0.7210 c3         1 8AY       0.006400
     17 O           -6.0180    -2.5790     8.1260 o          1 8AY      -0.816300
     18 H1          -0.3610    -0.8840    -0.5110 hc         1 8AY       0.032700
     19 H3           1.8910    -0.7620     0.6800 hc         1 8AY       0.007533
     20 H4           1.8910    -0.2070    -1.0000 hc         1 8AY       0.007533
     21 H5           1.8910     0.9700     0.3210 hc         1 8AY       0.007533
     22 H8          -1.5300    -1.8610     1.2130 ha         1 8AY       0.121000
     23 HB1         -2.7540    -1.1310     7.5990 hc         1 8AY       0.067200
     24 HB2         -3.4090    -2.6110     6.8860 hc         1 8AY       0.067200
     25 HA          -5.2980    -1.2630     5.9410 hx         1 8AY       0.089700
     26 H33         -0.3870     1.8500     4.2650 ha         1 8AY       0.113000
     27 H34          0.4670     1.8440     1.9170 ha         1 8AY       0.118000
     28 H35         -1.5750     1.3530    -0.5540 hc         1 8AY       0.007533
     29 H36          0.0030     2.1220    -0.3360 hc         1 8AY       0.007533
     30 H37         -0.3180     1.1570    -1.7830 hc         1 8AY       0.007533
     31 OXT         -5.5200    -0.6160     9.0110 o          1 8AY      -0.816300
     32 H2          -3.9030     0.8310     7.3970 hn         1 8AY       0.214133
     33 H21         -5.5060     0.9370     7.0930 hn         1 8AY       0.214133
     34 H           -4.4440     0.8450     5.8540 hn         1 8AY       0.214133
@<TRIPOS>BOND
     1     1     2 1   
     2     1     3 1   
     3     1    16 1   
     4     1    18 1   
     5     2    19 1   
     6     2    20 1   
     7     2    21 1   
     8     3     4 ar  
     9     3    15 ar  
    10     4     6 ar  
    11     4    22 1   
    12     5    10 1   
    13     5    32 1   
    14     5    33 1   
    15     5    34 1   
    16     6     7 ar  
    17     6    12 1   
    18     7    13 1   
    19     7    14 ar  
    20     8     9 1   
    21     8    12 1   
    22     8    13 2   
    23     9    10 1   
    24     9    23 1   
    25     9    24 1   
    26    10    11 1   
    27    10    25 1   
    28    11    17 1   
    29    11    31 1   
    30    14    15 ar  
    31    14    26 1   
    32    15    27 1   
    33    16    28 1   
    34    16    29 1   
    35    16    30 1   
@<TRIPOS>SUBSTRUCTURE
     1 8AY         1 TEMP              0 ****  ****    0 ROOT
