@<TRIPOS>MOLECULE
8B0
   55    58     1     0     0
SMALL
bcc


@<TRIPOS>ATOM
      1 C2           0.0000     0.0000     0.0000 c2         1 8B0      -0.149900
      2 C3           1.3490     0.0000     0.0000 ce         1 8B0       0.154100
      3 C4           2.1720     0.0000     1.2640 c3         1 8B0       0.179800
      4 C5           1.2540     0.3020     2.4210 cc         1 8B0      -0.391600
      5 C6          -0.1520     0.2890     2.2920 cc         1 8B0       0.562600
      6 C10          1.5530     0.6150     3.6910 cd         1 8B0      -0.166600
      7 C12          2.9370     0.7430     4.2740 c3         1 8B0       0.074200
      8 C13          3.2590     1.0720     1.1730 c3         1 8B0      -0.076700
      9 C14          4.1660     0.7790    -0.0240 c3         1 8B0      -0.023100
     10 C15          2.8080    -1.3540     1.4570 ca         1 8B0      -0.121300
     11 C16          4.1670    -1.4500     1.6920 ca         1 8B0      -0.055000
     12 C17          4.7570    -2.6890     1.8710 ca         1 8B0      -0.187300
     13 C19          2.6210    -3.7440     1.5790 cp         1 8B0      -0.020000
     14 N53          3.9930    -6.5990    -0.9360 n1         1 8B0      -0.323800
     15 C39          2.1730    -6.0470     0.7020 ca         1 8B0       0.051000
     16 C40          1.3830    -7.1960     0.6610 ca         1 8B0      -0.101000
     17 C41          0.2330    -7.2690     1.4200 ca         1 8B0      -0.076000
     18 C42         -0.1440    -6.2080     2.2250 ca         1 8B0      -0.087000
     19 C43          0.6250    -5.0630     2.2790 ca         1 8B0      -0.091000
     20 C32          1.7910    -4.9710     1.5250 cp         1 8B0      -0.036000
     21 C18          3.9920    -3.8350     1.8150 ca         1 8B0      -0.011000
     22 C33          6.2400    -2.7860     2.1260 c3         1 8B0       0.642200
     23 F48          6.8910    -1.7200     1.4960 f          1 8B0      -0.199633
     24 F47          6.4800    -2.7320     3.5020 f          1 8B0      -0.199633
     25 F46          6.7230    -3.9950     1.6140 f          1 8B0      -0.199633
     26 C20          2.0300    -2.4930     1.4050 ca         1 8B0      -0.073000
     27 C34          2.6070     2.4450     0.9940 c3         1 8B0      -0.023100
     28 C8           2.0320    -0.0010    -1.2590 cg         1 8B0       0.086500
     29 N9           2.5580    -0.0080    -2.2660 n1         1 8B0      -0.234800
     30 N7          -0.6390    -0.0050    -1.2150 nz         1 8B0       0.281600
     31 N51          0.3870     0.7960     4.3540 na         1 8B0       0.486400
     32 N11         -0.6660     0.5840     3.4500 nd         1 8B0      -0.603800
     33 O1          -0.7640    -0.0000     1.1110 os         1 8B0      -0.262400
     34 H1           3.5180    -0.1370     4.0230 hc         1 8B0       0.030033
     35 H2           3.4210     1.6230     3.8670 hc         1 8B0       0.030033
     36 H3           2.8680     0.8350     5.3520 hc         1 8B0       0.030033
     37 H4           3.9500     0.9580     2.0000 hc         1 8B0       0.068700
     38 H5           4.1430    -0.2820    -0.2430 hc         1 8B0       0.019367
     39 H6           5.1810     1.0770     0.2110 hc         1 8B0       0.019367
     40 H7           3.8170     1.3340    -0.8860 hc         1 8B0       0.019367
     41 H8           4.7680    -0.5520     1.7740 ha         1 8B0       0.145000
     42 H9           1.6690    -8.0290     0.0300 ha         1 8B0       0.129000
     43 H10         -0.3810    -8.1610     1.3880 ha         1 8B0       0.118000
     44 H11         -1.0480    -6.2720     2.8180 ha         1 8B0       0.114000
     45 H12          0.3270    -4.2400     2.9170 ha         1 8B0       0.111000
     46 H13          4.4560    -4.8040     1.9550 ha         1 8B0       0.139000
     47 H14          0.9600    -2.4120     1.2560 ha         1 8B0       0.104000
     48 H15          1.8550     2.3900     0.2170 hc         1 8B0       0.019367
     49 H16          2.1430     2.7480     1.9250 hc         1 8B0       0.019367
     50 H17          3.3620     3.1700     0.7150 hc         1 8B0       0.019367
     51 H18         -0.4490     0.8530    -1.6950 hn         1 8B0       0.224800
     52 H19         -1.6250    -0.0960    -1.0720 hn         1 8B0       0.224800
     53 H20          0.2920     1.0360     5.3210 hn         1 8B0       0.172700
     54 H73         -0.5020    -0.8900    -1.6600 hn         1 8B0       0.224800
     55 C50          3.3360    -6.2930    -0.4440 cg         1 8B0       0.213800
@<TRIPOS>BOND
     1     1     2 2   
     2     1    30 1   
     3     1    33 1   
     4     2     3 1   
     5     2    28 1   
     6     3     4 1   
     7     3     8 1   
     8     3    10 1   
     9     4     5 1   
    10     4     6 2   
    11     5    32 2   
    12     5    33 1   
    13     6     7 1   
    14     6    31 1   
    15     7    34 1   
    16     7    35 1   
    17     7    36 1   
    18     8     9 1   
    19     8    27 1   
    20     8    37 1   
    21     9    38 1   
    22     9    39 1   
    23     9    40 1   
    24    10    11 ar  
    25    10    26 ar  
    26    11    12 ar  
    27    11    41 1   
    28    12    21 ar  
    29    12    22 1   
    30    13    20 1   
    31    13    21 ar  
    32    13    26 ar  
    33    14    55 3   
    34    15    16 ar  
    35    15    20 ar  
    36    15    55 1   
    37    16    17 ar  
    38    16    42 1   
    39    17    18 ar  
    40    17    43 1   
    41    18    19 ar  
    42    18    44 1   
    43    19    20 ar  
    44    19    45 1   
    45    21    46 1   
    46    22    23 1   
    47    22    24 1   
    48    22    25 1   
    49    26    47 1   
    50    27    48 1   
    51    27    49 1   
    52    27    50 1   
    53    28    29 3   
    54    30    51 1   
    55    30    52 1   
    56    30    54 1   
    57    31    32 1   
    58    31    53 1   
@<TRIPOS>SUBSTRUCTURE
     1 8B0         1 TEMP              0 ****  ****    0 ROOT
