@<TRIPOS>MOLECULE
molecule
   54    57     1     0     0
SMALL
bcc


@<TRIPOS>ATOM
      1 C2           0.0000     0.0000     0.0000 c2         1 8B3       0.068100
      2 C3           1.3500     0.0000     0.0000 ce         1 8B3       0.050100
      3 C4           2.1710     0.0000     1.2640 c3         1 8B3       0.138800
      4 C5           1.2540    -0.3030     2.4210 cc         1 8B3      -0.380600
      5 C6          -0.1520    -0.2900     2.2900 cc         1 8B3       0.547600
      6 N11         -0.6660    -0.5860     3.4490 nd         1 8B3      -0.458800
      7 C13          2.8160     1.3740     1.4610 c3         1 8B3      -0.102700
      8 C14          3.6370     1.7340     0.2210 c3         1 8B3      -0.093600
      9 C15          3.2420    -1.0560     1.1740 ca         1 8B3      -0.083300
     10 C16          4.5670    -0.7170     1.3870 ca         1 8B3      -0.091000
     11 C17          5.5560    -1.6810     1.3060 ca         1 8B3      -0.167300
     12 C18          5.2240    -2.9880     1.0110 ca         1 8B3      -0.066000
     13 C19          3.8930    -3.3360     0.7940 cp         1 8B3      -0.058000
     14 C20          2.9010    -2.3610     0.8830 ca         1 8B3      -0.091000
     15 C39          2.5210    -5.3820     1.1910 ca         1 8B3       0.139900
     16 C40          2.1890    -6.6900     0.8900 ca         1 8B3      -0.173000
     17 C41          2.8610    -7.3610    -0.1160 ca         1 8B3      -0.065000
     18 C42          3.8680    -6.7290    -0.8240 ca         1 8B3      -0.128000
     19 C43          4.2080    -5.4240    -0.5310 ca         1 8B3      -0.113000
     20 C32          3.5320    -4.7390     0.4760 cp         1 8B3      -0.107000
     21 C33          6.9950    -1.3040     1.5400 c3         1 8B3       0.677200
     22 F48          7.1980     0.0240     1.1490 f          1 8B3      -0.214300
     23 F47          7.2980    -1.4410     2.8990 f          1 8B3      -0.214300
     24 F46          7.8250    -2.1430     0.7900 f          1 8B3      -0.214300
     25 C34          1.7240     2.4240     1.6720 c3         1 8B3      -0.093600
     26 C8           2.0320     0.0010    -1.2590 cg         1 8B3       0.118500
     27 N9           2.5860    -0.0110    -2.2510 n1         1 8B3      -0.244800
     28 N7          -0.6390    -0.0010    -1.2150 nz         1 8B3      -0.676400
     29 C10          1.5530    -0.6180     3.6900 cd         1 8B3       0.012400
     30 N51          0.3870    -0.7990     4.3530 na         1 8B3      -0.022600
     31 O1          -0.7650    -0.0050     1.1100 os         1 8B3      -0.300400
     32 H2           2.8970     0.2930     4.5760 hc         1 8B3       0.078033
     33 H3           2.7730    -1.4380     5.0910 hc         1 8B3       0.078033
     34 H4           3.7530    -1.0450     3.6270 hc         1 8B3       0.078033
     35 H5           3.6810     1.1590     2.0770 hc         1 8B3       0.091700
     36 H6           3.0710     1.9140    -0.6850 hc         1 8B3       0.049533
     37 H7           4.1570     2.6360     0.5190 hc         1 8B3       0.049533
     38 H8           4.2420     0.9170    -0.1530 hc         1 8B3       0.049533
     39 H9           5.0960     0.2030     1.6030 ha         1 8B3       0.172000
     40 H10          5.6590    -3.8170     0.4640 ha         1 8B3       0.177000
     41 H11          1.9530    -2.7990     0.5910 ha         1 8B3       0.143000
     42 H12          1.6700    -7.2360     1.6680 ha         1 8B3       0.159000
     43 H13          2.6000    -8.4120    -0.0840 ha         1 8B3       0.154000
     44 H14          4.4510    -6.9080    -1.7190 ha         1 8B3       0.156000
     45 H15          5.0860    -5.0420    -1.0390 ha         1 8B3       0.146000
     46 H16          1.2230     2.2390     0.7300 hc         1 8B3       0.049533
     47 H17          1.2430     2.0100     2.5510 hc         1 8B3       0.049533
     48 H18          2.2340     3.3770     1.5990 hc         1 8B3       0.049533
     49 H19         -1.4190     0.5440    -0.9050 hn         1 8B3       0.496800
     50 H20          0.0290     0.4920    -1.7730 hn         1 8B3       0.496800
     51 H22          0.2200    -1.0810     5.2980 hn         1 8B3       0.362700
     52 C12          2.9360    -0.7460     4.2740 c3         1 8B3      -0.033800
     53 H73         -0.5230    -0.9360    -1.5520 hn         1 8B3       0.496800
     54 F50          1.8640    -4.7260     2.1730 f          1 8B3      -0.140900
@<TRIPOS>BOND
     1    24    21 1   
     2    27    26 3   
     3    22    21 1   
     4    21    23 1   
     5    21    11 1   
     6    26     2 1   
     7    11    10 ar  
     8    11    12 ar  
     9    10     9 ar  
    10    28     1 1   
    11     2     1 2   
    12     2     3 1   
    13     7    25 1   
    14     7     8 1   
    15     7     3 1   
    16     1    31 1   
    17    12    13 ar  
    18     3     9 1   
    19     3     4 1   
    20     9    14 ar  
    21    31     5 1   
    22    13    14 ar  
    23    13    20 1   
    24     4     5 1   
    25     4    29 2   
    26    19    20 ar  
    27    19    18 ar  
    28     5     6 2   
    29    20    15 ar  
    30    29    52 1   
    31    29    30 1   
    32    18    17 ar  
    33     6    30 1   
    34    15    54 1   
    35    15    16 ar  
    36    17    16 ar  
    37    52    32 1   
    38    52    33 1   
    39    52    34 1   
    40     7    35 1   
    41     8    36 1   
    42     8    37 1   
    43     8    38 1   
    44    10    39 1   
    45    12    40 1   
    46    14    41 1   
    47    16    42 1   
    48    17    43 1   
    49    18    44 1   
    50    19    45 1   
    51    25    46 1   
    52    25    47 1   
    53    25    48 1   
    54    28    49 1   
    55    28    50 1   
    56    30    51 1   
    57    53    28 1   
@<TRIPOS>SUBSTRUCTURE
     1 8B3         1 TEMP              0 ****  ****    0 ROOT
