@<TRIPOS>MOLECULE
8B3
   54    57     1     0     0
SMALL
bcc


@<TRIPOS>ATOM
      1 C2           0.0000     0.0000     0.0000 c2         1 8B3      -0.154900
      2 C3           1.3500     0.0000     0.0000 ce         1 8B3       0.137100
      3 C4           2.1710     0.0000     1.2640 c3         1 8B3       0.170800
      4 C5           1.2540    -0.3030     2.4210 cc         1 8B3      -0.398600
      5 C6          -0.1520    -0.2900     2.2900 cc         1 8B3       0.565600
      6 N11         -0.6660    -0.5860     3.4490 nd         1 8B3      -0.611800
      7 C13          2.8160     1.3740     1.4610 c3         1 8B3      -0.102700
      8 C14          3.6370     1.7340     0.2210 c3         1 8B3      -0.016600
      9 C15          3.2420    -1.0560     1.1740 ca         1 8B3      -0.086300
     10 C16          4.5670    -0.7170     1.3870 ca         1 8B3      -0.067000
     11 C17          5.5560    -1.6810     1.3060 ca         1 8B3      -0.183300
     12 C18          5.2240    -2.9880     1.0110 ca         1 8B3      -0.037000
     13 C19          3.8930    -3.3360     0.7940 cp         1 8B3      -0.054000
     14 C20          2.9010    -2.3610     0.8830 ca         1 8B3      -0.074000
     15 C39          2.5210    -5.3820     1.1910 ca         1 8B3       0.110900
     16 C40          2.1890    -6.6900     0.8900 ca         1 8B3      -0.143000
     17 C41          2.8610    -7.3610    -0.1160 ca         1 8B3      -0.027000
     18 C42          3.8680    -6.7290    -0.8240 ca         1 8B3      -0.094000
     19 C43          4.2080    -5.4240    -0.5310 ca         1 8B3      -0.094000
     20 C32          3.5320    -4.7390     0.4760 cp         1 8B3      -0.094000
     21 C33          6.9950    -1.3040     1.5400 c3         1 8B3       0.642200
     22 F48          7.1980     0.0240     1.1490 f          1 8B3      -0.200300
     23 F47          7.2980    -1.4410     2.8990 f          1 8B3      -0.200300
     24 F46          7.8250    -2.1430     0.7900 f          1 8B3      -0.200300
     25 C34          1.7240     2.4240     1.6720 c3         1 8B3      -0.016600
     26 C8           2.0320     0.0010    -1.2590 cg         1 8B3       0.087500
     27 N9           2.5860    -0.0110    -2.2510 n1         1 8B3      -0.234800
     28 N7          -0.6390    -0.0010    -1.2150 nz         1 8B3       0.227600
     29 C10          1.5530    -0.6180     3.6900 cd         1 8B3      -0.168600
     30 N51          0.3870    -0.7990     4.3530 na         1 8B3       0.480400
     31 O1          -0.7650    -0.0050     1.1100 os         1 8B3      -0.261400
     32 H2           2.8970     0.2930     4.5760 hc         1 8B3       0.036033
     33 H3           2.7730    -1.4380     5.0910 hc         1 8B3       0.036033
     34 H4           3.7530    -1.0450     3.6270 hc         1 8B3       0.036033
     35 H5           3.6810     1.1590     2.0770 hc         1 8B3       0.075700
     36 H6           3.0710     1.9140    -0.6850 hc         1 8B3       0.021367
     37 H7           4.1570     2.6360     0.5190 hc         1 8B3       0.021367
     38 H8           4.2420     0.9170    -0.1530 hc         1 8B3       0.021367
     39 H9           5.0960     0.2030     1.6030 ha         1 8B3       0.153000
     40 H10          5.6590    -3.8170     0.4640 ha         1 8B3       0.153000
     41 H11          1.9530    -2.7990     0.5910 ha         1 8B3       0.118000
     42 H12          1.6700    -7.2360     1.6680 ha         1 8B3       0.131000
     43 H13          2.6000    -8.4120    -0.0840 ha         1 8B3       0.119000
     44 H14          4.4510    -6.9080    -1.7190 ha         1 8B3       0.126000
     45 H15          5.0860    -5.0420    -1.0390 ha         1 8B3       0.120000
     46 H16          1.2230     2.2390     0.7300 hc         1 8B3       0.021367
     47 H17          1.2430     2.0100     2.5510 hc         1 8B3       0.021367
     48 H18          2.2340     3.3770     1.5990 hc         1 8B3       0.021367
     49 H19         -1.4190     0.5440    -0.9050 hn         1 8B3       0.247800
     50 H20          0.0290     0.4920    -1.7730 hn         1 8B3       0.247800
     51 H22          0.2200    -1.0810     5.2980 hn         1 8B3       0.172700
     52 C12          2.9360    -0.7460     4.2740 c3         1 8B3       0.078200
     53 H73         -0.5230    -0.9360    -1.5520 hn         1 8B3       0.247800
     54 F50          1.8640    -4.7260     2.1730 f          1 8B3      -0.130900
@<TRIPOS>BOND
     1     1     2 2   
     2     1    28 1   
     3     1    31 1   
     4     2     3 1   
     5     2    26 1   
     6     3     4 1   
     7     3     7 1   
     8     3     9 1   
     9     4     5 1   
    10     4    29 2   
    11     5     6 2   
    12     5    31 1   
    13     6    30 1   
    14     7     8 1   
    15     7    25 1   
    16     7    35 1   
    17     8    36 1   
    18     8    37 1   
    19     8    38 1   
    20     9    10 ar  
    21     9    14 ar  
    22    10    11 ar  
    23    10    39 1   
    24    11    12 ar  
    25    11    21 1   
    26    12    13 ar  
    27    12    40 1   
    28    13    14 ar  
    29    13    20 1   
    30    14    41 1   
    31    15    16 ar  
    32    15    20 ar  
    33    15    54 1   
    34    16    17 ar  
    35    16    42 1   
    36    17    18 ar  
    37    17    43 1   
    38    18    19 ar  
    39    18    44 1   
    40    19    20 ar  
    41    19    45 1   
    42    21    22 1   
    43    21    23 1   
    44    21    24 1   
    45    25    46 1   
    46    25    47 1   
    47    25    48 1   
    48    26    27 3   
    49    28    49 1   
    50    28    50 1   
    51    28    53 1   
    52    29    30 1   
    53    29    52 1   
    54    30    51 1   
    55    32    52 1   
    56    33    52 1   
    57    34    52 1   
@<TRIPOS>SUBSTRUCTURE
     1 8B3         1 TEMP              0 ****  ****    0 ROOT
