@<TRIPOS>MOLECULE
molecule
   41    43     1     0     0
SMALL
bcc


@<TRIPOS>ATOM
      1 C8           0.0000     0.0000     0.0000 cc         1 8B4      -0.028400
      2 C6           0.7750    -0.0100     3.4780 cd         1 8B4       0.712200
      3 C5           0.6230    -0.0070     2.0690 cd         1 8B4      -0.221600
      4 F2'          1.6100     1.7220    -2.7900 f          1 8B4      -0.249300
      5 C2'          2.4680     1.4450    -1.7200 c3         1 8B4       0.124300
      6 C2M          2.2500     2.4490    -0.5860 c3         1 8B4      -0.110100
      7 C3'          3.9400     1.4650    -2.1860 c3         1 8B4       0.089100
      8 O3'          4.0190     1.7650    -3.5820 oh         1 8B4      -0.591800
      9 C1'          2.2500     0.0010    -1.2130 c3         1 8B4       0.187300
     10 O4'          3.5710    -0.4690    -0.8650 os         1 8B4      -0.332600
     11 C4'          4.4410     0.0310    -1.9090 c3         1 8B4       0.113100
     12 C5'          5.8930     0.0580    -1.4250 c3         1 8B4       0.242400
     13 O5'          6.3740    -1.2800    -1.2860 os         1 8B4      -0.585200
     14 PA           7.8670    -1.6280    -0.7940 p5         1 8B4       1.427800
     15 O1A          8.9280    -1.0980    -1.8840 o          1 8B4      -0.859500
     16 O3A          8.0190    -3.2230    -0.6290 os         1 8B4      -0.711800
     17 PB           9.0410    -4.1710     0.1750 p5         1 8B4       1.308900
     18 O1B          8.4380    -5.6610     0.2580 o          1 8B4      -0.879167
     19 O2B         10.4570    -4.2070    -0.5910 o          1 8B4      -0.879167
     20 O3B          9.2340    -3.6400     1.5440 o          1 8B4      -0.879167
     21 O2A          8.1240    -0.9710     0.5060 o          1 8B4      -0.859500
     22 C9           1.3560     0.0000     0.0000 cd         1 8B4      -0.100300
     23 N7          -0.4240    -0.0000     1.2640 nc         1 8B4      -0.340600
     24 N6          -0.3360    -0.0270     4.2990 nv         1 8B4      -1.000500
     25 N1           1.9890    -0.0160     3.9970 nc         1 8B4      -0.860000
     26 C2           3.0760     0.0000     3.2310 cd         1 8B4       0.666900
     27 N3           3.0050    -0.0000     1.9270 nc         1 8B4      -0.531800
     28 N4           1.7570     0.0000     1.2950 na         1 8B4       0.233200
     29 H1          -0.6330     0.0020    -0.8790 h4         1 8B4       0.168000
     30 H2           1.2110     2.4290    -0.2800 hc         1 8B4       0.047700
     31 H3           2.5060     3.4440    -0.9310 hc         1 8B4       0.047700
     32 H4           2.8790     2.1860     0.2550 hc         1 8B4       0.047700
     33 H5           4.5090     2.1820    -1.6060 h1         1 8B4       0.058700
     34 H6           4.5160     2.5570    -3.7060 ho         1 8B4       0.392000
     35 H7           1.8290    -0.6130    -2.0000 h1         1 8B4       0.066700
     36 H8           4.3460    -0.5780    -2.8000 h1         1 8B4       0.072700
     37 H9           5.9450     0.5620    -0.4680 h1         1 8B4       0.029200
     38 H10          6.5040     0.5880    -2.1460 h1         1 8B4       0.029200
     39 H14         -1.2540    -0.0380     3.8990 hn         1 8B4       0.433300
     40 H15         -0.2240    -0.0180     5.2940 hn         1 8B4       0.433300
     41 H16          4.0510    -0.0060     3.7040 h5         1 8B4       0.089100
@<TRIPOS>BOND
     1    20    17 1   
     2    21    14 1   
     3    18    17 1   
     4    17    19 1   
     5    17    16 1   
     6     8     7 1   
     7    12    11 1   
     8    12    13 1   
     9    14    16 1   
    10    14    13 1   
    11    14    15 1   
    12    11     7 1   
    13    11    10 1   
    14     7     5 1   
    15     4     5 1   
    16    10     9 1   
    17     5     6 1   
    18     5     9 1   
    19     9    22 1   
    20    22     1 2   
    21    22    28 1   
    22     1    23 1   
    23    28    27 1   
    24    28     3 1   
    25    23     3 2   
    26    27    26 2   
    27     3     2 1   
    28    26    25 1   
    29     2    25 2   
    30     2    24 1   
    31     1    29 1   
    32     6    30 1   
    33     6    31 1   
    34     6    32 1   
    35     7    33 1   
    36     8    34 1   
    37     9    35 1   
    38    11    36 1   
    39    12    37 1   
    40    12    38 1   
    41    24    39 1   
    42    24    40 1   
    43    26    41 1   
@<TRIPOS>SUBSTRUCTURE
     1 8B4         1 TEMP              0 ****  ****    0 ROOT
