@<TRIPOS>MOLECULE
molecule
   28    28     1     0     0
SMALL
bcc


@<TRIPOS>ATOM
      1 CAA          0.0000     0.0000     0.0000 c3         1 8BD       0.125700
      2 OAL          1.4290     0.0000     0.0000 os         1 8BD      -0.294900
      3 CAP          2.0460     0.0000     1.2090 ca         1 8BD       0.176100
      4 CAH          1.2950    -0.0540     2.3730 ca         1 8BD      -0.255000
      5 CAF          1.9240    -0.0530     3.6030 ca         1 8BD      -0.062000
      6 CAE          3.3050     0.0020     3.6840 ca         1 8BD      -0.187000
      7 CAG          4.0660     0.0560     2.5360 ca         1 8BD      -0.053000
      8 CAO          3.4440     0.0510     1.2870 ca         1 8BD      -0.285900
      9 CAD          4.2530     0.1030     0.0550 ce         1 8BD       0.165800
     10 NAK          5.4960    -0.2560     0.0810 n2         1 8BD      -0.320200
     11 OAM          6.0760    -0.7120     1.2890 os         1 8BD      -0.281300
     12 CAI          7.4610    -1.0440     1.1810 c3         1 8BD       0.142400
     13 CAJ          7.9610    -1.5940     2.5190 c3         1 8BD      -0.187400
     14 CAN          9.4520    -1.7990     2.4520 c          1 8BD       0.895600
     15 OAC         10.1120    -2.2770     3.5180 o          1 8BD      -0.847800
     16 OAB         10.0540    -1.5340     1.4380 o          1 8BD      -0.847800
     17 HAA         -0.3610     0.8670     0.5390 h1         1 8BD       0.039367
     18 HAAA        -0.3610    -0.9010     0.4810 h1         1 8BD       0.039367
     19 HAAB        -0.3610     0.0330    -1.0210 h1         1 8BD       0.039367
     20 HAH          0.2140    -0.0970     2.3170 ha         1 8BD       0.131000
     21 HAF          1.3330    -0.0950     4.5100 ha         1 8BD       0.124000
     22 HAE          3.7890     0.0040     4.6530 ha         1 8BD       0.139000
     23 HAG          5.1470     0.0970     2.6040 ha         1 8BD       0.202000
     24 HAD          3.8260    -0.8050     0.4630 h4         1 8BD       0.233800
     25 HAI          8.0260    -0.1570     0.9210 h1         1 8BD       0.049200
     26 HAIA         7.5940    -1.7940     0.4100 h1         1 8BD       0.049200
     27 HAJ          7.7290    -0.8890     3.3080 hc         1 8BD       0.035200
     28 HAJA         7.4750    -2.5390     2.7250 hc         1 8BD       0.035200
@<TRIPOS>BOND
     1     2     1 1   
     2     1    17 1   
     3     1    18 1   
     4     1    19 1   
     5     2     3 1   
     6     4     3 ar  
     7     3     8 ar  
     8     4     5 ar  
     9     4    20 1   
    10     5     6 ar  
    11     5    21 1   
    12     6     7 ar  
    13     6    22 1   
    14     8     7 ar  
    15     7    23 1   
    16     8     9 1   
    17     9    10 2   
    18     9    24 1   
    19    10    11 1   
    20    11    12 1   
    21    12    13 1   
    22    12    25 1   
    23    12    26 1   
    24    13    14 1   
    25    13    27 1   
    26    13    28 1   
    27    14    16 1   
    28    14    15 1   
@<TRIPOS>SUBSTRUCTURE
     1 8BD         1 TEMP              0 ****  ****    0 ROOT
