@<TRIPOS>MOLECULE
molecule
   79    82     1     0     0
SMALL
bcc


@<TRIPOS>ATOM
      1 O35          0.0000     0.0000     0.0000 oh         1 8BF      -0.523100
      2 C26          1.3590     0.0000     0.0000 ca         1 8BF       0.107100
      3 C25          2.0550     0.0000     1.2010 ca         1 8BF      -0.156500
      4 C24          3.4360    -0.0050     1.1980 ca         1 8BF      -0.099000
      5 C27          2.0530    -0.0050    -1.2010 ca         1 8BF      -0.156500
      6 C28          3.4350    -0.0050    -1.1980 ca         1 8BF      -0.099000
      7 C23          4.1250    -0.0110    -0.0000 ca         1 8BF      -0.126300
      8 C22          5.6320    -0.0150    -0.0000 c3         1 8BF       0.194400
      9 O34          6.1120     0.8470    -1.0350 oh         1 8BF      -0.602800
     10 C21          6.1370    -1.4390    -0.2480 c3         1 8BF      -0.077400
     11 C20          7.6630    -1.4680    -0.1240 c3         1 8BF      -0.085400
     12 C19          8.1670    -2.8910    -0.3720 c3         1 8BF      -0.079400
     13 C18          9.6920    -2.9200    -0.2490 c3         1 8BF      -0.070700
     14 C33         10.0930    -2.5930     1.1900 c3         1 8BF      -0.095100
     15 C17         10.2070    -4.3120    -0.6180 c3         1 8BF      -0.054700
     16 C13         11.7250    -4.3530    -0.5360 c3         1 8BF      -0.061000
     17 C32         12.2890    -2.9910    -0.9440 c3         1 8BF      -0.092100
     18 C12         12.3610    -4.7890     0.7630 c3         1 8BF      -0.065400
     19 C11         13.8840    -4.6320     0.6090 c3         1 8BF      -0.078400
     20 C10         14.4250    -5.4710    -0.5480 c3         1 8BF      -0.043200
     21 C16          9.8720    -4.6360    -2.0970 c3         1 8BF      -0.081400
     22 C15         11.2270    -4.9510    -2.7920 c3         1 8BF      -0.078400
     23 C14         12.1120    -5.3970    -1.6220 c3         1 8BF      -0.035500
     24 C9          13.5940    -5.2550    -1.8040 c2         1 8BF      -0.095400
     25 C8          14.1420    -4.9640    -2.9790 ce         1 8BF      -0.152000
     26 C7          15.6030    -4.8380    -3.0980 ce         1 8BF      -0.133000
     27 C6          16.1440    -4.4400    -4.2440 c2         1 8BF      -0.110400
     28 C1          17.6450    -4.4340    -4.4240 c3         1 8BF      -0.051700
     29 C5          15.2700    -3.9920    -5.3930 c3         1 8BF      -0.051700
     30 C4          15.6230    -4.8270    -6.6320 c3         1 8BF       0.194800
     31 O30         14.9980    -4.2610    -7.7850 oh         1 8BF      -0.603800
     32 C3          17.1240    -4.8130    -6.8090 c2         1 8BF      -0.150400
     33 C31         17.6600    -4.4220    -7.9390 c2         1 8BF      -0.191000
     34 C2          17.9920    -5.2670    -5.6640 c3         1 8BF       0.194800
     35 O29         17.7550    -6.6510    -5.4010 oh         1 8BF      -0.603800
     36 H1          -0.3140    -0.8890     0.0040 ho         1 8BF       0.419000
     37 H2           1.5150     0.0050     2.1400 ha         1 8BF       0.140500
     38 H3           3.9790    -0.0070     2.1350 ha         1 8BF       0.139500
     39 H4           1.5130    -0.0010    -2.1400 ha         1 8BF       0.140500
     40 H5           3.9780    -0.0090    -2.1360 ha         1 8BF       0.139500
     41 H6           5.9950     0.3350     0.9590 h1         1 8BF       0.036700
     42 H7           6.3250     1.6890    -0.6680 ho         1 8BF       0.404000
     43 H8           5.8500    -1.7560    -1.2440 hc         1 8BF       0.054200
     44 H9           5.7030    -2.1090     0.4840 hc         1 8BF       0.054200
     45 H10          7.9500    -1.1510     0.8710 hc         1 8BF       0.047200
     46 H11          8.0970    -0.7980    -0.8570 hc         1 8BF       0.047200
     47 H12          7.8790    -3.2080    -1.3670 hc         1 8BF       0.042700
     48 H13          7.7330    -3.5610     0.3610 hc         1 8BF       0.042700
     49 H14         10.1220    -2.1860    -0.9200 hc         1 8BF       0.060700
     50 H15          9.3600    -1.9240     1.6260 hc         1 8BF       0.035700
     51 H16         11.0650    -2.1150     1.1950 hc         1 8BF       0.035700
     52 H17         10.1370    -3.5070     1.7700 hc         1 8BF       0.035700
     53 H18          9.7770    -5.0630     0.0340 hc         1 8BF       0.053700
     54 H19         13.2920    -3.1180    -1.3340 hc         1 8BF       0.040700
     55 H20         12.3180    -2.3390    -0.0800 hc         1 8BF       0.040700
     56 H21         11.6580    -2.5520    -1.7070 hc         1 8BF       0.040700
     57 H22         12.1180    -5.8260     0.9600 hc         1 8BF       0.044700
     58 H23         12.0090    -4.1610     1.5720 hc         1 8BF       0.044700
     59 H24         14.1130    -3.5900     0.4250 hc         1 8BF       0.042700
     60 H25         14.3640    -4.9490     1.5270 hc         1 8BF       0.042700
     61 H26         14.3910    -6.5180    -0.2750 hc         1 8BF       0.049700
     62 H27         15.4500    -5.1820    -0.7470 hc         1 8BF       0.049700
     63 H28          9.2190    -5.4990    -2.1490 hc         1 8BF       0.044700
     64 H29          9.4050    -3.7790    -2.5680 hc         1 8BF       0.044700
     65 H30         11.1100    -5.7540    -3.5100 hc         1 8BF       0.047200
     66 H31         11.6320    -4.0630    -3.2610 hc         1 8BF       0.047200
     67 H32         11.8540    -6.3980    -1.3010 hc         1 8BF       0.066700
     68 H33         13.5130    -4.8180    -3.8490 ha         1 8BF       0.135000
     69 H34         16.2400    -5.1610    -2.2840 ha         1 8BF       0.131000
     70 H35         18.1170    -4.8680    -3.5510 hc         1 8BF       0.058200
     71 H36         17.9900    -3.4160    -4.5630 hc         1 8BF       0.058200
     72 H37         14.2280    -4.1450    -5.1370 hc         1 8BF       0.058200
     73 H38         15.4500    -2.9430    -5.5980 hc         1 8BF       0.058200
     74 H39         15.2840    -5.8460    -6.4910 h1         1 8BF       0.046200
     75 H40         14.2430    -4.7750    -8.0170 ho         1 8BF       0.401500
     76 H41         18.7370    -4.4200    -8.0550 ha         1 8BF       0.122000
     77 H42         17.0260    -4.1040    -8.7580 ha         1 8BF       0.122000
     78 H43         19.0340    -5.1150    -5.9200 h1         1 8BF       0.046200
     79 H44         18.5540    -7.1370    -5.5250 ho         1 8BF       0.401500
@<TRIPOS>BOND
     1    33    32 2   
     2    35    34 1   
     3    32    34 1   
     4    32    30 1   
     5    34    28 1   
     6    30    31 1   
     7    30    29 1   
     8    28    27 1   
     9    29    27 1   
    10    27    26 2   
    11    26    25 1   
    12    25    24 2   
    13    24    23 1   
    14    24    20 1   
    15    22    23 1   
    16    22    21 1   
    17    17    16 1   
    18    23    16 1   
    19    21    15 1   
    20    20    19 1   
    21    10     8 1   
    22    10    11 1   
    23    16    15 1   
    24    16    18 1   
    25    12    11 1   
    26    12    13 1   
    27    19    18 1   
    28    15    13 1   
    29     8     7 1   
    30     8     9 1   
    31     4     7 ar  
    32     4     3 ar  
    33    13    14 1   
    34     7     6 ar  
    35     3     2 ar  
    36     6     5 ar  
    37     2     5 ar  
    38     2     1 1   
    39     1    36 1   
    40     3    37 1   
    41     4    38 1   
    42     5    39 1   
    43     6    40 1   
    44     8    41 1   
    45     9    42 1   
    46    10    43 1   
    47    10    44 1   
    48    11    45 1   
    49    11    46 1   
    50    12    47 1   
    51    12    48 1   
    52    13    49 1   
    53    14    50 1   
    54    14    51 1   
    55    14    52 1   
    56    15    53 1   
    57    17    54 1   
    58    17    55 1   
    59    17    56 1   
    60    18    57 1   
    61    18    58 1   
    62    19    59 1   
    63    19    60 1   
    64    20    61 1   
    65    20    62 1   
    66    21    63 1   
    67    21    64 1   
    68    22    65 1   
    69    22    66 1   
    70    23    67 1   
    71    25    68 1   
    72    26    69 1   
    73    28    70 1   
    74    28    71 1   
    75    29    72 1   
    76    29    73 1   
    77    30    74 1   
    78    31    75 1   
    79    33    76 1   
    80    33    77 1   
    81    34    78 1   
    82    35    79 1   
@<TRIPOS>SUBSTRUCTURE
     1 8BF         1 TEMP              0 ****  ****    0 ROOT
