@<TRIPOS>MOLECULE
molecule
   79    83     1     0     0
SMALL
bcc


@<TRIPOS>ATOM
      1 C15          0.0000     0.0000     0.0000 ca         1 8BG      -0.023500
      2 C17          0.0010     0.0120     2.3980 ca         1 8BG       0.223600
      3 C20          3.7680     4.3860     2.5260 ca         1 8BG      -0.071300
      4 C21          3.4720     5.5980     3.1200 ca         1 8BG      -0.118500
      5 C22          4.1450     5.9930     4.2610 ca         1 8BG      -0.121000
      6 C24          5.4110     3.9610     4.2160 ca         1 8BG      -0.121000
      7 C28          4.9440     2.0310    -1.5950 cx         1 8BG      -0.153900
      8 N01          3.7590     5.9210     0.0080 ns         1 8BG      -0.572900
      9 C02          3.7990     4.4570     0.0480 c3         1 8BG       0.106700
     10 C03          3.1460     3.8950    -1.2170 c3         1 8BG       0.165100
     11 C04          3.4820     2.4070    -1.3460 cx         1 8BG       0.178200
     12 C05          3.0390     3.9590     1.2790 c3         1 8BG      -0.054100
     13 N06          2.4530     1.5800    -1.9830 n3         1 8BG      -0.764500
     14 C07          1.5930     2.1520    -3.0210 c3         1 8BG       0.235800
     15 C08          2.2840     2.0260    -4.3820 c3         1 8BG      -0.097700
     16 C09          1.3140     2.4450    -5.4880 c3         1 8BG      -0.087600
     17 S10          2.2620    -0.0010    -1.5260 sy         1 8BG       1.431200
     18 C11          1.3820     0.0000     0.0000 ca         1 8BG      -0.322500
     19 O12          1.3990    -0.5930    -2.4870 o          1 8BG      -0.640300
     20 O13          3.5630    -0.4950    -1.2410 o          1 8BG      -0.640300
     21 C14          3.5160     2.9330    -4.4120 c3         1 8BG      -0.087600
     22 C16         -0.6930     0.0060     1.1950 ca         1 8BG      -0.170500
     23 C18          1.3900    -0.0000     2.3940 ca         1 8BG      -0.170500
     24 C19          2.0760     0.0000     1.1960 ca         1 8BG      -0.023500
     25 C23          5.1150     5.1740     4.8080 ca         1 8BG      -0.126000
     26 C25          4.7390     3.5670     3.0730 ca         1 8BG      -0.118500
     27 N26         -0.6960     0.0130     3.6080 nv         1 8BG      -0.993200
     28 O27          1.7290     4.0570    -1.1340 oh         1 8BG      -0.589800
     29 C29          4.3080     1.7700    -0.2280 cx         1 8BG      -0.153900
     30 O31          4.6290     7.9840     0.6630 os         1 8BG      -0.433900
     31 O32          5.5180     6.0710     1.3540 o          1 8BG      -0.593000
     32 C33          5.6390     8.6920     1.4300 c3         1 8BG       0.135100
     33 C34          6.8740     8.9780     0.5580 c3         1 8BG       0.115400
     34 O35          6.9870    10.4030     0.4300 os         1 8BG      -0.423600
     35 C36          6.3580    10.9990     1.5800 c3         1 8BG       0.327900
     36 C37          5.1190    10.0850     1.8440 c3         1 8BG      -0.135700
     37 O38          5.7760    12.2570     1.1890 os         1 8BG      -0.393600
     38 C39          4.6280    11.9710     0.3750 c3         1 8BG       0.127400
     39 C40          4.1130    10.5770     0.7810 c3         1 8BG      -0.102400
     40 H1          -0.5410    -0.0050    -0.9390 ha         1 8BG       0.148000
     41 H2           2.7110     6.2390     2.6910 ha         1 8BG       0.123500
     42 H3           3.9120     6.9430     4.7260 ha         1 8BG       0.124500
     43 H4           6.1720     3.3200     4.6450 ha         1 8BG       0.124500
     44 H5           5.6390     2.8610    -1.6360 hc         1 8BG       0.099450
     45 H6           5.1030     1.1550    -2.2110 hc         1 8BG       0.099450
     46 H7           3.0370     6.3870    -0.5050 hn         1 8BG       0.315500
     47 H8           4.8290     4.1250     0.1000 h1         1 8BG       0.097700
     48 H9           3.5200     4.4260    -2.0830 h1         1 8BG       0.053700
     49 H10          2.0410     4.3800     1.2820 hc         1 8BG       0.068700
     50 H11          2.9740     2.8780     1.2510 hc         1 8BG       0.068700
     51 H12          0.6510     1.6180    -3.0440 h1         1 8BG       0.066200
     52 H13          1.4110     3.1970    -2.8040 h1         1 8BG       0.066200
     53 H14          2.5880     0.9980    -4.5390 hc         1 8BG       0.062700
     54 H15          1.8140     2.3890    -6.4470 hc         1 8BG       0.034200
     55 H16          0.4570     1.7820    -5.4880 hc         1 8BG       0.034200
     56 H17          0.9830     3.4620    -5.3120 hc         1 8BG       0.034200
     57 H18          3.2920     3.8630    -3.9040 hc         1 8BG       0.034200
     58 H19          4.3410     2.4390    -3.9140 hc         1 8BG       0.034200
     59 H20          3.7860     3.1400    -5.4410 hc         1 8BG       0.034200
     60 H21         -1.7770     0.0110     1.1940 ha         1 8BG       0.141500
     61 H22          1.9350     0.0020     3.3310 ha         1 8BG       0.141500
     62 H23          3.1600    -0.0050     1.1940 ha         1 8BG       0.148000
     63 H24          5.6420     5.4830     5.7030 ha         1 8BG       0.125000
     64 H25          4.9710     2.6170     2.6080 ha         1 8BG       0.123500
     65 H26         -0.7980    -0.8370     4.1280 hn         1 8BG       0.434300
     66 H27         -1.0950     0.8630     3.9560 hn         1 8BG       0.434300
     67 H28          1.4920     4.9150    -1.4460 ho         1 8BG       0.399000
     68 H29          4.6160     2.4400     0.5660 hc         1 8BG       0.099450
     69 H30          4.0790     0.7340    -0.0090 hc         1 8BG       0.099450
     70 H31          5.9230     8.1220     2.3070 h1         1 8BG       0.089700
     71 H32          7.7610     8.5810     1.0370 h1         1 8BG       0.065200
     72 H33          6.7440     8.5310    -0.4200 h1         1 8BG       0.065200
     73 H34          7.0160    11.0780     2.4370 h2         1 8BG       0.099700
     74 H35          4.7490    10.1360     2.8610 hc         1 8BG       0.087700
     75 H36          4.9120    11.9670    -0.6710 h1         1 8BG       0.053200
     76 H37          3.8590    12.7130     0.5510 h1         1 8BG       0.053200
     77 H38          4.1130     9.9120    -0.0740 hc         1 8BG       0.063700
     78 H39          3.1210    10.6530     1.2090 hc         1 8BG       0.063700
     79 C30          4.6660     6.6380     0.6990 c          1 8BG       0.745100
@<TRIPOS>BOND
     1    27     2 1   
     2    22     2 ar  
     3    22     1 ar  
     4     2    23 ar  
     5    29     7 1   
     6    29    11 1   
     7     1    18 ar  
     8     7    11 1   
     9    23    24 ar  
    10    18    24 ar  
    11    18    17 1   
    12    28    10 1   
    13    11    10 1   
    14    11    13 1   
    15    14    13 1   
    16    14    15 1   
    17    10     9 1   
    18    13    17 1   
    19    20    17 2   
    20    21    15 1   
    21    17    19 2   
    22    12     9 1   
    23    12     3 1   
    24    15    16 1   
    25     9     8 1   
    26     3     4 ar  
    27     3    26 ar  
    28     8    79 1   
    29     4     5 ar  
    30    26     6 ar  
    31     5    25 ar  
    32    79    30 1   
    33    79    31 2   
    34     6    25 ar  
    35    30    32 1   
    36    38    37 1   
    37    38    39 1   
    38    37    35 1   
    39    32    33 1   
    40    32    36 1   
    41    39    36 1   
    42    34    33 1   
    43    34    35 1   
    44    35    36 1   
    45     1    40 1   
    46     4    41 1   
    47     5    42 1   
    48     6    43 1   
    49     7    44 1   
    50     7    45 1   
    51     8    46 1   
    52     9    47 1   
    53    10    48 1   
    54    12    49 1   
    55    12    50 1   
    56    14    51 1   
    57    14    52 1   
    58    15    53 1   
    59    16    54 1   
    60    16    55 1   
    61    16    56 1   
    62    21    57 1   
    63    21    58 1   
    64    21    59 1   
    65    22    60 1   
    66    23    61 1   
    67    24    62 1   
    68    25    63 1   
    69    26    64 1   
    70    27    65 1   
    71    27    66 1   
    72    28    67 1   
    73    29    68 1   
    74    29    69 1   
    75    32    70 1   
    76    33    71 1   
    77    33    72 1   
    78    35    73 1   
    79    36    74 1   
    80    38    75 1   
    81    38    76 1   
    82    39    77 1   
    83    39    78 1   
@<TRIPOS>SUBSTRUCTURE
     1 8BG         1 TEMP              0 ****  ****    0 ROOT
