@<TRIPOS>MOLECULE
8BG
   79    83     1     0     0
SMALL
bcc


@<TRIPOS>ATOM
      1 C15          0.0000     0.0000     0.0000 ca         1 8BG       0.006500
      2 C17          0.0010     0.0120     2.3980 ca         1 8BG       0.086600
      3 C20          3.7680     4.3860     2.5260 ca         1 8BG      -0.078300
      4 C21          3.4720     5.5980     3.1200 ca         1 8BG      -0.096000
      5 C22          4.1450     5.9930     4.2610 ca         1 8BG      -0.090500
      6 C24          5.4110     3.9610     4.2160 ca         1 8BG      -0.090500
      7 C28          4.9440     2.0310    -1.5950 cx         1 8BG      -0.130900
      8 N01          3.7590     5.9210     0.0080 ns         1 8BG      -0.168900
      9 C02          3.7990     4.4570     0.0480 c3         1 8BG      -0.013300
     10 C03          3.1460     3.8950    -1.2170 c3         1 8BG       0.208100
     11 C04          3.4820     2.4070    -1.3460 cx         1 8BG       0.110200
     12 C05          3.0390     3.9590     1.2790 c3         1 8BG      -0.005100
     13 N06          2.4530     1.5800    -1.9830 n3         1 8BG      -0.449500
     14 C07          1.5930     2.1520    -3.0210 c3         1 8BG       0.203800
     15 C08          2.2840     2.0260    -4.3820 c3         1 8BG      -0.076700
     16 C09          1.3140     2.4450    -5.4880 c3         1 8BG      -0.000600
     17 S10          2.2620    -0.0010    -1.5260 sy         1 8BG       1.052200
     18 C11          1.3820     0.0000     0.0000 ca         1 8BG      -0.164500
     19 O12          1.3990    -0.5930    -2.4870 o          1 8BG      -0.590800
     20 O13          3.5630    -0.4950    -1.2410 o          1 8BG      -0.590800
     21 C14          3.5160     2.9330    -4.4120 c3         1 8BG      -0.000600
     22 C16         -0.6930     0.0060     1.1950 ca         1 8BG      -0.149000
     23 C18          1.3900    -0.0000     2.3940 ca         1 8BG      -0.149000
     24 C19          2.0760     0.0000     1.1960 ca         1 8BG       0.006500
     25 C23          5.1150     5.1740     4.8080 ca         1 8BG      -0.099000
     26 C25          4.7390     3.5670     3.0730 ca         1 8BG      -0.096000
     27 N26         -0.6960     0.0130     3.6080 nv         1 8BG      -0.560200
     28 O27          1.7290     4.0570    -1.1340 oh         1 8BG      -0.572800
     29 C29          4.3080     1.7700    -0.2280 cx         1 8BG      -0.130900
     30 O31          4.6290     7.9840     0.6630 os         1 8BG      -0.412900
     31 O32          5.5180     6.0710     1.3540 o          1 8BG      -0.641000
     32 C33          5.6390     8.6920     1.4300 c3         1 8BG       0.168100
     33 C34          6.8740     8.9780     0.5580 c3         1 8BG       0.191400
     34 O35          6.9870    10.4030     0.4300 os         1 8BG      -0.418600
     35 C36          6.3580    10.9990     1.5800 c3         1 8BG       0.394900
     36 C37          5.1190    10.0850     1.8440 c3         1 8BG      -0.121700
     37 O38          5.7760    12.2570     1.1890 os         1 8BG      -0.393600
     38 C39          4.6280    11.9710     0.3750 c3         1 8BG       0.213400
     39 C40          4.1130    10.5770     0.7810 c3         1 8BG      -0.056400
     40 H1          -0.5410    -0.0050    -0.9390 ha         1 8BG       0.124000
     41 H2           2.7110     6.2390     2.6910 ha         1 8BG       0.101000
     42 H3           3.9120     6.9430     4.7260 ha         1 8BG       0.098000
     43 H4           6.1720     3.3200     4.6450 ha         1 8BG       0.098000
     44 H5           5.6390     2.8610    -1.6360 hc         1 8BG       0.080950
     45 H6           5.1030     1.1550    -2.2110 hc         1 8BG       0.080950
     46 H7           3.0370     6.3870    -0.5050 hn         1 8BG       0.167500
     47 H8           4.8290     4.1250     0.1000 h1         1 8BG       0.083700
     48 H9           3.5200     4.4260    -2.0830 h1         1 8BG       0.021700
     49 H10          2.0410     4.3800     1.2820 hc         1 8BG       0.042700
     50 H11          2.9740     2.8780     1.2510 hc         1 8BG       0.042700
     51 H12          0.6510     1.6180    -3.0440 h1         1 8BG       0.040200
     52 H13          1.4110     3.1970    -2.8040 h1         1 8BG       0.040200
     53 H14          2.5880     0.9980    -4.5390 hc         1 8BG       0.041700
     54 H15          1.8140     2.3890    -6.4470 hc         1 8BG       0.004200
     55 H16          0.4570     1.7820    -5.4880 hc         1 8BG       0.004200
     56 H17          0.9830     3.4620    -5.3120 hc         1 8BG       0.004200
     57 H18          3.2920     3.8630    -3.9040 hc         1 8BG       0.004200
     58 H19          4.3410     2.4390    -3.9140 hc         1 8BG       0.004200
     59 H20          3.7860     3.1400    -5.4410 hc         1 8BG       0.004200
     60 H21         -1.7770     0.0110     1.1940 ha         1 8BG       0.114500
     61 H22          1.9350     0.0020     3.3310 ha         1 8BG       0.114500
     62 H23          3.1600    -0.0050     1.1940 ha         1 8BG       0.124000
     63 H24          5.6420     5.4830     5.7030 ha         1 8BG       0.099000
     64 H25          4.9710     2.6170     2.6080 ha         1 8BG       0.101000
     65 H26         -0.7980    -0.8370     4.1280 hn         1 8BG       0.278300
     66 H27         -1.0950     0.8630     3.9560 hn         1 8BG       0.278300
     67 H28          1.4920     4.9150    -1.4460 ho         1 8BG       0.388000
     68 H29          4.6160     2.4400     0.5660 hc         1 8BG       0.080950
     69 H30          4.0790     0.7340    -0.0090 hc         1 8BG       0.080950
     70 H31          5.9230     8.1220     2.3070 h1         1 8BG       0.054700
     71 H32          7.7610     8.5810     1.0370 h1         1 8BG       0.021200
     72 H33          6.7440     8.5310    -0.4200 h1         1 8BG       0.021200
     73 H34          7.0160    11.0780     2.4370 h2         1 8BG       0.044700
     74 H35          4.7490    10.1360     2.8610 hc         1 8BG       0.056700
     75 H36          4.9120    11.9670    -0.6710 h1         1 8BG       0.010200
     76 H37          3.8590    12.7130     0.5510 h1         1 8BG       0.010200
     77 H38          4.1130     9.9120    -0.0740 hc         1 8BG       0.032200
     78 H39          3.1210    10.6530     1.2090 hc         1 8BG       0.032200
     79 C30          4.6660     6.6380     0.6990 c          1 8BG       0.675100
@<TRIPOS>BOND
     1     1    18 ar  
     2     1    22 ar  
     3     1    40 1   
     4     2    22 ar  
     5     2    23 ar  
     6     2    27 1   
     7     3     4 ar  
     8     3    12 1   
     9     3    26 ar  
    10     4     5 ar  
    11     4    41 1   
    12     5    25 ar  
    13     5    42 1   
    14     6    25 ar  
    15     6    26 ar  
    16     6    43 1   
    17     7    11 1   
    18     7    29 1   
    19     7    44 1   
    20     7    45 1   
    21     8     9 1   
    22     8    46 1   
    23     8    79 1   
    24     9    10 1   
    25     9    12 1   
    26     9    47 1   
    27    10    11 1   
    28    10    28 1   
    29    10    48 1   
    30    11    13 1   
    31    11    29 1   
    32    12    49 1   
    33    12    50 1   
    34    13    14 1   
    35    13    17 1   
    36    14    15 1   
    37    14    51 1   
    38    14    52 1   
    39    15    16 1   
    40    15    21 1   
    41    15    53 1   
    42    16    54 1   
    43    16    55 1   
    44    16    56 1   
    45    17    18 1   
    46    17    19 2   
    47    17    20 2   
    48    18    24 ar  
    49    21    57 1   
    50    21    58 1   
    51    21    59 1   
    52    22    60 1   
    53    23    24 ar  
    54    23    61 1   
    55    24    62 1   
    56    25    63 1   
    57    26    64 1   
    58    27    65 1   
    59    27    66 1   
    60    28    67 1   
    61    29    68 1   
    62    29    69 1   
    63    30    32 1   
    64    30    79 1   
    65    31    79 2   
    66    32    33 1   
    67    32    36 1   
    68    32    70 1   
    69    33    34 1   
    70    33    71 1   
    71    33    72 1   
    72    34    35 1   
    73    35    36 1   
    74    35    37 1   
    75    35    73 1   
    76    36    39 1   
    77    36    74 1   
    78    37    38 1   
    79    38    39 1   
    80    38    75 1   
    81    38    76 1   
    82    39    77 1   
    83    39    78 1   
@<TRIPOS>SUBSTRUCTURE
     1 8BG         1 TEMP              0 ****  ****    0 ROOT
