@<TRIPOS>MOLECULE
molecule
   32    33     1     0     0
SMALL
bcc


@<TRIPOS>ATOM
      1 C1           0.0000     0.0000     0.0000 c3         1 8BJ       0.141100
      2 C2           1.5340     0.0000     0.0000 c3         1 8BJ       0.104100
      3 C3           2.0090     0.0000     1.4480 c3         1 8BJ       0.111100
      4 C4           1.4440    -1.1720     2.2340 c3         1 8BJ       0.197500
      5 C5           0.3570    -0.6830     4.3350 c2         1 8BJ       0.695100
      6 O1           2.0160     1.1690    -0.6660 oh         1 8BJ      -0.598800
      7 O2           3.4360    -0.0720     1.4700 oh         1 8BJ      -0.607800
      8 C6          -1.0940    -0.3130     6.2100 c3         1 8BJ       0.138800
      9 C7          -1.4150    -1.4890     7.1370 c3         1 8BJ      -0.089100
     10 C8           0.0180    -1.5440     1.8670 c3         1 8BJ       0.259200
     11 O3          -0.4360    -1.2240     0.5840 os         1 8BJ      -0.363600
     12 C           -0.5180     0.1020    -1.4350 c3         1 8BJ       0.154400
     13 O           -1.9440     0.2000    -1.4210 oh         1 8BJ      -0.598800
     14 S           -0.9710    -0.7210     3.1580 ss         1 8BJ      -0.372300
     15 N            1.5310    -0.8710     3.6610 nu         1 8BJ      -0.888200
     16 N1           0.2340    -0.5050     5.6210 n2         1 8BJ      -0.674900
     17 H1          -0.3650     0.8340     0.5870 h1         1 8BJ       0.081700
     18 H2           1.8980    -0.8890    -0.5020 h1         1 8BJ       0.058700
     19 H3           1.6920     0.9220     1.9200 h1         1 8BJ       0.069700
     20 H4           2.0700    -2.0340     2.0370 h1         1 8BJ       0.081700
     21 H5           2.7610     0.9430    -1.1980 ho         1 8BJ       0.415000
     22 H6           3.7860     0.7340     1.8100 ho         1 8BJ       0.416000
     23 H7          -1.8180    -0.2800     5.4050 h1         1 8BJ       0.046200
     24 H8          -1.1360     0.6120     6.7730 h1         1 8BJ       0.046200
     25 H9          -1.1080    -2.4150     6.6650 hc         1 8BJ       0.039367
     26 H10         -2.4800    -1.5180     7.3280 hc         1 8BJ       0.039367
     27 H11         -0.8830    -1.3670     8.0720 hc         1 8BJ       0.039367
     28 H12         -0.0890    -2.6140     1.9950 h2         1 8BJ       0.109700
     29 H13         -0.2220    -0.7800    -1.9900 h1         1 8BJ       0.038700
     30 H14         -0.1000     0.9830    -1.9080 h1         1 8BJ       0.038700
     31 H15         -2.2630     0.2760    -2.3060 ho         1 8BJ       0.405000
     32 H16          2.4100    -0.8780     4.1400 hn         1 8BJ       0.464800
@<TRIPOS>BOND
     1     7     3 1
     2     4     3 1
     3     4    15 1
     4     4    10 1
     5    13    12 1
     6     3     2 1
     7     2     6 1
     8     2     1 1
     9    15     5 1
    10    10    11 1
    11    10    14 1
    12    11     1 1
    13     1    12 1
    14     5    14 1
    15     5    16 2
    16    16     8 1
    17     8     9 1
    18     1    17 1
    19     2    18 1
    20     3    19 1
    21     4    20 1
    22     6    21 1
    23     7    22 1
    24     8    23 1
    25     8    24 1
    26     9    25 1
    27     9    26 1
    28     9    27 1
    29    10    28 1
    30    12    29 1
    31    12    30 1
    32    13    31 1
    33    15    32 1
@<TRIPOS>SUBSTRUCTURE
     1 8BJ         1 TEMP              0 ****  ****    0 ROOT
