@<TRIPOS>MOLECULE
8BJ
   32    33     1     0     0
SMALL
bcc


@<TRIPOS>ATOM
      1 C1           0.0000     0.0000     0.0000 c3         1 8BJ       0.155100
      2 C2           1.5340     0.0000     0.0000 c3         1 8BJ       0.140100
      3 C3           2.0090     0.0000     1.4480 c3         1 8BJ       0.149100
      4 C4           1.4440    -1.1720     2.2340 c3         1 8BJ       0.088500
      5 C5           0.3570    -0.6830     4.3350 c2         1 8BJ       0.526100
      6 O1           2.0160     1.1690    -0.6660 oh         1 8BJ      -0.578800
      7 O2           3.4360    -0.0720     1.4700 oh         1 8BJ      -0.588800
      8 C6          -1.0940    -0.3130     6.2100 c3         1 8BJ       0.165800
      9 C7          -1.4150    -1.4890     7.1370 c3         1 8BJ       0.005900
     10 C8           0.0180    -1.5440     1.8670 c3         1 8BJ       0.320200
     11 O3          -0.4360    -1.2240     0.5840 os         1 8BJ      -0.343600
     12 C           -0.5180     0.1020    -1.4350 c3         1 8BJ       0.228400
     13 O           -1.9440     0.2000    -1.4210 oh         1 8BJ      -0.580800
     14 S           -0.9710    -0.7210     3.1580 ss         1 8BJ      -0.401300
     15 N            1.5310    -0.8710     3.6610 nu         1 8BJ      -0.483200
     16 N1           0.2340    -0.5050     5.6210 n2         1 8BJ      -0.591900
     17 H1          -0.3650     0.8340     0.5870 h1         1 8BJ       0.048700
     18 H2           1.8980    -0.8890    -0.5020 h1         1 8BJ       0.025700
     19 H3           1.6920     0.9220     1.9200 h1         1 8BJ       0.034700
     20 H4           2.0700    -2.0340     2.0370 h1         1 8BJ       0.052700
     21 H5           2.7710     0.9460    -1.1850 ho         1 8BJ       0.401000
     22 H6           3.7890     0.7610     1.7360 ho         1 8BJ       0.403000
     23 H7          -1.8180    -0.2800     5.4050 h1         1 8BJ       0.016700
     24 H8          -1.1360     0.6120     6.7730 h1         1 8BJ       0.016700
     25 H9          -0.9110    -1.3490     8.0850 hc         1 8BJ       0.004700
     26 H10         -1.0760    -2.4110     6.6800 hc         1 8BJ       0.004700
     27 H11         -2.4840    -1.5390     7.3000 hc         1 8BJ       0.004700
     28 H12         -0.0890    -2.6140     1.9950 h2         1 8BJ       0.069700
     29 H13         -0.2220    -0.7800    -1.9900 h1         1 8BJ      -0.000300
     30 H14         -0.1000     0.9830    -1.9080 h1         1 8BJ      -0.000300
     31 H15         -2.2650     0.2480    -2.3070 ho         1 8BJ       0.391000
     32 H16          2.4100    -0.8780     4.1400 hn         1 8BJ       0.313800
@<TRIPOS>BOND
     1     1     2 1   
     2     1    11 1   
     3     1    12 1   
     4     1    17 1   
     5     2     3 1   
     6     2     6 1   
     7     2    18 1   
     8     3     4 1   
     9     3     7 1   
    10     3    19 1   
    11     4    10 1   
    12     4    15 1   
    13     4    20 1   
    14     5    14 1   
    15     5    15 1   
    16     5    16 2   
    17     6    21 1   
    18     7    22 1   
    19     8     9 1   
    20     8    16 1   
    21     8    23 1   
    22     8    24 1   
    23     9    25 1   
    24     9    26 1   
    25     9    27 1   
    26    10    11 1   
    27    10    14 1   
    28    10    28 1   
    29    12    13 1   
    30    12    29 1   
    31    12    30 1   
    32    13    31 1   
    33    15    32 1   
@<TRIPOS>SUBSTRUCTURE
     1 8BJ         1 TEMP              0 ****  ****    0 ROOT
