@<TRIPOS>MOLECULE
molecule
   77    80     1     0     0
SMALL
bcc


@<TRIPOS>ATOM
      1 O25          0.0000     0.0000     0.0000 o          1 8BL      -0.528100
      2 C24          1.2130     0.0000     0.0000 c          1 8BL       0.577700
      3 C25          1.9470     0.0000     1.2720 ca         1 8BL      -0.190600
      4 C30          3.3470     0.0060     1.2760 ca         1 8BL      -0.066000
      5 C29          4.0280     0.0050     2.4660 ca         1 8BL      -0.170000
      6 C28          3.3290    -0.0020     3.6690 ca         1 8BL       0.135100
      7 O29          4.0080    -0.0010     4.8440 oh         1 8BL      -0.522100
      8 C27          1.9390    -0.0070     3.6720 ca         1 8BL      -0.170000
      9 C26          1.2490    -0.0000     2.4860 ca         1 8BL      -0.066000
     10 C23          1.9670    -0.0060    -1.3040 c3         1 8BL      -0.178400
     11 C20          0.9730    -0.0110    -2.4670 c3         1 8BL      -0.074400
     12 C19          1.7380    -0.0170    -3.7920 c3         1 8BL      -0.082400
     13 C18          0.7440    -0.0230    -4.9560 c3         1 8BL      -0.068700
     14 C22         -0.0500     1.2850    -4.9530 c3         1 8BL      -0.096100
     15 C17          1.5060    -0.1540    -6.2770 c3         1 8BL      -0.054700
     16 C13          0.5330    -0.1960    -7.4440 c3         1 8BL      -0.060000
     17 C21         -0.7480    -0.9110    -7.0100 c3         1 8BL      -0.092100
     18 C12          0.1730     1.1020    -8.1270 c3         1 8BL      -0.065400
     19 C11         -0.8980     0.7900    -9.1850 c3         1 8BL      -0.078400
     20 C10         -0.3990    -0.2220   -10.2150 c3         1 8BL      -0.043200
     21 C16          2.2620    -1.5070    -6.3300 c3         1 8BL      -0.081400
     22 C15          1.7570    -2.2400    -7.6040 c3         1 8BL      -0.077400
     23 C14          1.2680    -1.0870    -8.4870 c3         1 8BL      -0.035500
     24 C9           0.2410    -1.4200    -9.5270 c2         1 8BL      -0.095400
     25 C8          -0.0880    -2.6710    -9.8270 ce         1 8BL      -0.151000
     26 C7          -1.1050    -2.9390   -10.8560 ce         1 8BL      -0.133000
     27 C6          -1.5140    -4.1830   -11.0800 c2         1 8BL      -0.110400
     28 C1          -2.4560    -4.4900   -12.2220 c3         1 8BL      -0.048200
     29 C5          -1.0390    -5.3180   -10.2010 c3         1 8BL      -0.048200
     30 C4          -0.4030    -6.3930   -11.0910 c3         1 8BL       0.193800
     31 O2          -0.1730    -7.5760   -10.3230 oh         1 8BL      -0.603300
     32 C3          -1.3510    -6.7000   -12.2280 c2         1 8BL      -0.154400
     33 C33         -1.7530    -7.9260   -12.4500 c2         1 8BL      -0.193000
     34 C2          -1.8170    -5.5680   -13.1070 c3         1 8BL       0.193800
     35 O1          -0.7030    -5.0170   -13.8120 oh         1 8BL      -0.603300
     36 H1           3.8920     0.0110     0.3390 ha         1 8BL       0.146500
     37 H2           5.1110     0.0090     2.4700 ha         1 8BL       0.145000
     38 H3           4.0490     0.8780     5.1830 ho         1 8BL       0.425000
     39 H4           1.4000    -0.0100     4.6110 ha         1 8BL       0.145000
     40 H5           0.1650    -0.0050     2.4890 ha         1 8BL       0.146500
     41 H6           2.5890     0.8790    -1.3660 hc         1 8BL       0.064700
     42 H7           2.5900    -0.8900    -1.3570 hc         1 8BL       0.064700
     43 H8           0.3500    -0.8960    -2.4060 hc         1 8BL       0.057700
     44 H9           0.3500     0.8730    -2.4140 hc         1 8BL       0.057700
     45 H10          2.3610     0.8680    -3.8530 hc         1 8BL       0.040200
     46 H11          2.3620    -0.9010    -3.8450 hc         1 8BL       0.040200
     47 H12          0.0640    -0.8590    -4.8460 hc         1 8BL       0.061700
     48 H13         -1.0670     1.0900    -5.2720 hc         1 8BL       0.037367
     49 H14          0.4130     1.9900    -5.6320 hc         1 8BL       0.037367
     50 H15         -0.0590     1.7000    -3.9520 hc         1 8BL       0.037367
     51 H16          2.2010     0.6680    -6.3990 hc         1 8BL       0.053700
     52 H17         -1.3970    -0.2100    -6.4990 hc         1 8BL       0.041033
     53 H18         -0.4980    -1.7260    -6.3410 hc         1 8BL       0.041033
     54 H19         -1.2560    -1.3030    -7.8830 hc         1 8BL       0.041033
     55 H20          1.0500     1.5200    -8.6050 hc         1 8BL       0.044700
     56 H21         -0.2240     1.8010    -7.3990 hc         1 8BL       0.044700
     57 H22         -1.7730     0.3860    -8.6910 hc         1 8BL       0.043200
     58 H23         -1.1670     1.7070    -9.6950 hc         1 8BL       0.043200
     59 H24         -1.2350    -0.5610   -10.8140 hc         1 8BL       0.049700
     60 H25          0.3350     0.2540   -10.8540 hc         1 8BL       0.049700
     61 H26          2.0340    -2.0940    -5.4490 hc         1 8BL       0.043200
     62 H27          3.3290    -1.3330    -6.4010 hc         1 8BL       0.043200
     63 H28          0.9390    -2.9090    -7.3610 hc         1 8BL       0.047700
     64 H29          2.5680    -2.7730    -8.0850 hc         1 8BL       0.047700
     65 H30          2.1040    -0.5540    -8.9240 hc         1 8BL       0.065700
     66 H31          0.3920    -3.4950    -9.3130 ha         1 8BL       0.135000
     67 H32         -1.4480    -2.1350   -11.4960 ha         1 8BL       0.131000
     68 H33         -3.3970    -4.8550   -11.8280 hc         1 8BL       0.058450
     69 H34         -2.6230    -3.5930   -12.8050 hc         1 8BL       0.058450
     70 H35         -0.3030    -4.9490    -9.4970 hc         1 8BL       0.058450
     71 H36         -1.8820    -5.7410    -9.6670 hc         1 8BL       0.058450
     72 H37          0.5340    -6.0240   -11.4900 h1         1 8BL       0.046200
     73 H38          0.7530    -7.7550   -10.2910 ho         1 8BL       0.401500
     74 H39         -2.4300    -8.1350   -13.2690 ha         1 8BL       0.121500
     75 H40         -1.4070    -8.7330   -11.8140 ha         1 8BL       0.121500
     76 H41         -2.5510    -5.9370   -13.8120 h1         1 8BL       0.046200
     77 H42         -0.8520    -5.0890   -14.7400 ho         1 8BL       0.401500
@<TRIPOS>BOND
     1    33    32 2   
     2    31    30 1   
     3    32    30 1   
     4    32    34 1   
     5    30    29 1   
     6    35    34 1   
     7    34    28 1   
     8    29    27 1   
     9    28    27 1   
    10    27    26 2   
    11    26    25 1   
    12    25    24 2   
    13    24    23 1   
    14    24    20 1   
    15    22    23 1   
    16    22    21 1   
    17    17    16 1   
    18    23    16 1   
    19    20    19 1   
    20    21    15 1   
    21    16    15 1   
    22    16    18 1   
    23     1     2 2   
    24    19    18 1   
    25    15    13 1   
    26    12    13 1   
    27    12    11 1   
    28     2    10 1   
    29     2     3 1   
    30    10    11 1   
    31    13    14 1   
    32     4     3 ar  
    33     4     5 ar  
    34     3     9 ar  
    35     5     6 ar  
    36     9     8 ar  
    37     6     8 ar  
    38     6     7 1   
    39     4    36 1   
    40     5    37 1   
    41     7    38 1   
    42     8    39 1   
    43     9    40 1   
    44    10    41 1   
    45    10    42 1   
    46    11    43 1   
    47    11    44 1   
    48    12    45 1   
    49    12    46 1   
    50    13    47 1   
    51    14    48 1   
    52    14    49 1   
    53    14    50 1   
    54    15    51 1   
    55    17    52 1   
    56    17    53 1   
    57    17    54 1   
    58    18    55 1   
    59    18    56 1   
    60    19    57 1   
    61    19    58 1   
    62    20    59 1   
    63    20    60 1   
    64    21    61 1   
    65    21    62 1   
    66    22    63 1   
    67    22    64 1   
    68    23    65 1   
    69    25    66 1   
    70    26    67 1   
    71    28    68 1   
    72    28    69 1   
    73    29    70 1   
    74    29    71 1   
    75    30    72 1   
    76    31    73 1   
    77    33    74 1   
    78    33    75 1   
    79    34    76 1   
    80    35    77 1   
@<TRIPOS>SUBSTRUCTURE
     1 8BL         1 TEMP              0 ****  ****    0 ROOT
