@<TRIPOS>MOLECULE
molecule
   70    74     1     0     0
SMALL
bcc


@<TRIPOS>ATOM
      1 C5           0.0000     0.0000     0.0000 c3         1 8BM       0.096000
      2 C6           1.5490     0.0000     0.0000 c3         1 8BM      -0.113400
      3 C7           1.8600     0.0000     1.5200 c3         1 8BM       0.238500
      4 C8           0.7300    -0.8740     2.1040 c3         1 8BM       0.086000
      5 C10          3.8730    -0.2590     2.9260 ca         1 8BM       0.995900
      6 C15          1.9290     2.8270     4.0950 ca         1 8BM      -0.122500
      7 C17         -0.1680     3.7860     4.7560 ca         1 8BM       0.088600
      8 C21         -2.1820     4.6760     5.6160 c3         1 8BM       0.164800
      9 C22         -3.4430     5.4470     5.2180 c3         1 8BM       0.160300
     10 C24         -5.4520     5.3430     3.8700 c3         1 8BM       0.153100
     11 C26         -2.1180     3.6500     3.4250 c3         1 8BM       0.164800
     12 C1          -2.5970    -1.4120     0.1950 c3         1 8BM      -0.166100
     13 O3          -1.7490    -2.1980     2.2530 o          1 8BM      -0.601100
     14 N4          -0.3770    -0.8580     1.1370 n          1 8BM      -0.503800
     15 N9           3.1710    -0.6000     1.7800 nu         1 8BM      -0.894900
     16 N11          3.3370     0.6130     3.7710 nb         1 8BM      -0.871000
     17 C12          3.9710     0.9700     4.8820 ca         1 8BM       0.815200
     18 N13          3.4030     1.8800     5.7580 nu         1 8BM      -0.747300
     19 C14          2.2060     2.5220     5.4220 ca         1 8BM       0.127600
     20 C16          0.7480     3.4600     3.7640 ca         1 8BM      -0.152000
     21 C18          0.1100     3.4840     6.0830 ca         1 8BM      -0.152000
     22 C19          1.2920     2.8520     6.4150 ca         1 8BM      -0.122500
     23 N20         -1.3650     4.4260     4.4200 nh         1 8BM      -0.599000
     24 N23         -4.1950     4.6700     4.2230 n3         1 8BM      -0.732600
     25 C25         -3.3780     4.4210     3.0260 c3         1 8BM       0.160300
     26 C27          5.2300     0.4050     5.1490 ca         1 8BM      -0.250200
     27 N28          6.1350     0.5310     6.1500 nc         1 8BM      -0.579100
     28 C29          7.1600    -0.2330     5.9060 cd         1 8BM       0.404700
     29 N30          6.9740    -0.8980     4.7290 na         1 8BM      -0.249000
     30 C31          7.9040    -1.8490     4.1150 c3         1 8BM       0.053000
     31 C32          9.2370    -1.1520     3.8340 c3         1 8BM      -0.108100
     32 C33          8.1350    -3.0240     5.0670 c3         1 8BM      -0.108100
     33 C34          5.7580    -0.5130     4.2270 ca         1 8BM       0.513800
     34 N35          5.0520    -0.8180     3.1410 nb         1 8BM      -0.857000
     35 H1          -0.3750    -0.4170    -0.9270 h1         1 8BM       0.046200
     36 H2          -0.3760     1.0050     0.1480 h1         1 8BM       0.046200
     37 H3           1.9340    -0.8950    -0.4730 hc         1 8BM       0.060700
     38 H4           1.9340     0.8950    -0.4730 hc         1 8BM       0.060700
     39 H5           1.8060     1.0060     1.9180 h1         1 8BM       0.093700
     40 H6           1.0840    -1.8890     2.2410 h1         1 8BM       0.066700
     41 H7           0.3980    -0.4620     3.0490 h1         1 8BM       0.066700
     42 H8           2.6430     2.5730     3.3210 ha         1 8BM       0.145000
     43 H9          -1.6110     5.2620     6.3260 h1         1 8BM       0.049950
     44 H10         -2.4640     3.7310     6.0640 h1         1 8BM       0.049950
     45 H11         -4.0610     5.6040     6.0940 h1         1 8BM       0.041700
     46 H12         -3.1620     6.4020     4.7920 h1         1 8BM       0.041700
     47 H13         -5.2340     6.3050     3.4220 h1         1 8BM       0.032367
     48 H14         -6.0030     4.7330     3.1650 h1         1 8BM       0.032367
     49 H15         -6.0470     5.4890     4.7640 h1         1 8BM       0.032367
     50 H16         -1.5000     3.4930     2.5490 h1         1 8BM       0.049950
     51 H17         -2.3990     2.6950     3.8510 h1         1 8BM       0.049950
     52 H18         -2.2340    -1.8780    -0.7130 hc         1 8BM       0.059033
     53 H19         -3.5090    -1.9020     0.5130 hc         1 8BM       0.059033
     54 H20         -2.7960    -0.3640     0.0080 hc         1 8BM       0.059033
     55 H21          3.5750    -1.2290     1.1150 hn         1 8BM       0.459800
     56 H22          3.8580     2.0910     6.6240 hn         1 8BM       0.474800
     57 H23          0.5320     3.6970     2.7290 ha         1 8BM       0.136500
     58 H24         -0.6020     3.7400     6.8580 ha         1 8BM       0.136500
     59 H25          1.5080     2.6150     7.4500 ha         1 8BM       0.145000
     60 H27         -3.9490     3.8350     2.3160 h1         1 8BM       0.041700
     61 H28         -3.0960     5.3660     2.5790 h1         1 8BM       0.041700
     62 H29          8.0310    -0.3270     6.5420 h5         1 8BM       0.076800
     63 H30          7.4850    -2.2150     3.1860 h1         1 8BM       0.090700
     64 H31          9.8640    -1.8000     3.2330 hc         1 8BM       0.047367
     65 H32          9.7350    -0.9340     4.7700 hc         1 8BM       0.047367
     66 H33          9.0550    -0.2280     3.2980 hc         1 8BM       0.047367
     67 H34          7.1800    -3.4130     5.4000 hc         1 8BM       0.047367
     68 H35          8.6830    -3.8040     4.5520 hc         1 8BM       0.047367
     69 H36          8.7060    -2.6880     5.9240 hc         1 8BM       0.047367
     70 C2          -1.5450    -1.5180     1.2700 c          1 8BM       0.675100
@<TRIPOS>BOND
     1    32    30 1   
     2    31    30 1   
     3    30    29 1   
     4    29    28 1   
     5    29    33 1   
     6    34    33 ar  
     7    34     5 ar  
     8    28    27 2   
     9    33    26 ar  
    10    15     5 1   
    11    15     3 1   
    12     5    16 ar  
    13    27    26 1   
    14    13    70 2   
    15    26    17 ar  
    16     4    14 1   
    17     4     3 1   
    18    70    14 1   
    19    70    12 1   
    20    14     1 1   
    21     3     2 1   
    22    16    17 ar  
    23    17    18 1   
    24     1     2 1   
    25    18    19 1   
    26    19    22 ar  
    27    19     6 ar  
    28    22    21 ar  
    29     6    20 ar  
    30    21     7 ar  
    31    20     7 ar  
    32     7    23 1   
    33    23     8 1   
    34    23    11 1   
    35     8     9 1   
    36    11    25 1   
    37     9    24 1   
    38    25    24 1   
    39    24    10 1   
    40     1    35 1   
    41     1    36 1   
    42     2    37 1   
    43     2    38 1   
    44     3    39 1   
    45     4    40 1   
    46     4    41 1   
    47     6    42 1   
    48     8    43 1   
    49     8    44 1   
    50     9    45 1   
    51     9    46 1   
    52    10    47 1   
    53    10    48 1   
    54    10    49 1   
    55    11    50 1   
    56    11    51 1   
    57    12    52 1   
    58    12    53 1   
    59    12    54 1   
    60    15    55 1   
    61    18    56 1   
    62    20    57 1   
    63    21    58 1   
    64    22    59 1   
    65    25    60 1   
    66    25    61 1   
    67    28    62 1   
    68    30    63 1   
    69    31    64 1   
    70    31    65 1   
    71    31    66 1   
    72    32    67 1   
    73    32    68 1   
    74    32    69 1   
@<TRIPOS>SUBSTRUCTURE
     1 8BM         1 TEMP              0 ****  ****    0 ROOT
