@<TRIPOS>MOLECULE
molecule
   82    85     1     0     0
SMALL
bcc


@<TRIPOS>ATOM
      1 O36          0.0000     0.0000     0.0000 oh         1 8BO      -0.523100
      2 C33          1.3600     0.0000     0.0000 ca         1 8BO       0.105100
      3 C32          2.0550     0.0000     1.2010 ca         1 8BO      -0.155500
      4 C31          3.4360     0.0010     1.1970 ca         1 8BO      -0.101000
      5 C34          2.0540    -0.0060    -1.2010 ca         1 8BO      -0.155500
      6 C35          3.4350    -0.0050    -1.1990 ca         1 8BO      -0.101000
      7 C30          4.1260     0.0010    -0.0020 ca         1 8BO      -0.126300
      8 C27          5.6330     0.0020    -0.0020 c3         1 8BO       0.191400
      9 O28          6.1090    -0.7710    -1.1060 os         1 8BO      -0.424600
     10 C29          6.3040    -2.1540    -0.8060 c3         1 8BO       0.127700
     11 C26          6.1420     1.4390    -0.1280 c3         1 8BO      -0.074400
     12 C25          7.6670     1.4520    -0.0040 c3         1 8BO      -0.084400
     13 C24          8.1760     2.8890    -0.1300 c3         1 8BO      -0.080400
     14 C21          9.7010     2.9040    -0.0040 c3         1 8BO      -0.070700
     15 C22         10.3170     2.1510    -1.1860 c3         1 8BO      -0.096100
     16 C20         10.2000     4.3490    -0.0050 c3         1 8BO      -0.054700
     17 C16         11.7120     4.3870     0.1530 c3         1 8BO      -0.060000
     18 C23         12.1550     3.2290     1.0490 c3         1 8BO      -0.093100
     19 C15         12.5640     4.4070    -1.0940 c3         1 8BO      -0.065400
     20 C14         14.0350     4.3310    -0.6520 c3         1 8BO      -0.078400
     21 C13         14.4140     5.4970     0.2600 c3         1 8BO      -0.043200
     22 C19          9.6440     5.1120     1.2260 c3         1 8BO      -0.081400
     23 C18         10.8810     5.6500     2.0010 c3         1 8BO      -0.077400
     24 C17         11.9570     5.7220     0.9120 c3         1 8BO      -0.035500
     25 C12         13.3850     5.6700     1.3670 c2         1 8BO      -0.094400
     26 C11         13.7270     5.7660     2.6480 ce         1 8BO      -0.152000
     27 C10         15.1440     5.7080     3.0370 ce         1 8BO      -0.133000
     28 C4          15.4810     5.6940     4.3230 c2         1 8BO      -0.111400
     29 C3          16.9320     5.7680     4.7390 c3         1 8BO      -0.051200
     30 C2          17.1060     6.9510     5.7000 c3         1 8BO       0.194300
     31 O9          16.9610     8.1780     4.9810 oh         1 8BO      -0.603800
     32 C5          14.4180     5.6120     5.3950 c3         1 8BO      -0.051200
     33 C6          14.5970     6.7950     6.3540 c3         1 8BO       0.194300
     34 O8          13.7740     6.6080     7.5060 oh         1 8BO      -0.603800
     35 C1          16.0440     6.8630     6.7710 c2         1 8BO      -0.150400
     36 C7          16.3720     6.8490     8.0390 c2         1 8BO      -0.191000
     37 H1          -0.3140     0.8890    -0.0030 ho         1 8BO       0.418000
     38 H2           1.5150    -0.0000     2.1400 ha         1 8BO       0.140500
     39 H3           3.9800     0.0030     2.1340 ha         1 8BO       0.140000
     40 H4           1.5130    -0.0100    -2.1400 ha         1 8BO       0.140500
     41 H5           3.9780    -0.0080    -2.1360 ha         1 8BO       0.140000
     42 H6           5.9950    -0.4290     0.9230 h1         1 8BO       0.042700
     43 H7           7.1710    -2.5210    -1.3430 h1         1 8BO       0.031367
     44 H8           5.4280    -2.7160    -1.1070 h1         1 8BO       0.031367
     45 H9           6.4630    -2.2740     0.2590 h1         1 8BO       0.031367
     46 H10          5.7100     2.0450     0.6590 hc         1 8BO       0.054200
     47 H11          5.8550     1.8410    -1.0920 hc         1 8BO       0.054200
     48 H12          8.0990     0.8460    -0.7910 hc         1 8BO       0.048200
     49 H13          7.9550     1.0510     0.9610 hc         1 8BO       0.048200
     50 H14          7.7440     3.4960     0.6570 hc         1 8BO       0.042700
     51 H15          7.8890     3.2910    -1.0940 hc         1 8BO       0.042700
     52 H16          9.9920     2.4220     0.9210 hc         1 8BO       0.058700
     53 H17          9.6370     1.3730    -1.5120 hc         1 8BO       0.037033
     54 H18         10.4930     2.8420    -2.0020 hc         1 8BO       0.037033
     55 H19         11.2560     1.7060    -0.8810 hc         1 8BO       0.037033
     56 H20          9.9080     4.8530    -0.9190 hc         1 8BO       0.054700
     57 H21         11.3800     3.0180     1.7770 hc         1 8BO       0.040367
     58 H22         13.0690     3.4990     1.5630 hc         1 8BO       0.040367
     59 H23         12.3280     2.3490     0.4420 hc         1 8BO       0.040367
     60 H24         12.3240     3.5530    -1.7160 hc         1 8BO       0.045200
     61 H25         12.3920     5.3270    -1.6400 hc         1 8BO       0.045200
     62 H26         14.6680     4.3540    -1.5310 hc         1 8BO       0.042700
     63 H27         14.1950     3.4020    -0.1200 hc         1 8BO       0.042700
     64 H28         14.4610     6.4060    -0.3270 hc         1 8BO       0.049700
     65 H29         15.3830     5.3010     0.7020 hc         1 8BO       0.049700
     66 H30          9.0780     4.4360     1.8560 hc         1 8BO       0.044200
     67 H31          9.0220     5.9370     0.9020 hc         1 8BO       0.044200
     68 H32         10.6800     6.6350     2.4050 hc         1 8BO       0.046700
     69 H33         11.1730     4.9590     2.7820 hc         1 8BO       0.046700
     70 H34         11.7890     6.5700     0.2580 hc         1 8BO       0.066700
     71 H35         12.9620     5.8890     3.4050 ha         1 8BO       0.134000
     72 H36         15.9150     5.7720     2.2780 ha         1 8BO       0.131000
     73 H37         17.5530     5.9180     3.8640 hc         1 8BO       0.057950
     74 H38         17.2140     4.8500     5.2390 hc         1 8BO       0.057950
     75 H39         18.0870     6.9050     6.1570 h1         1 8BO       0.046700
     76 H40         17.7360     8.7030     5.0960 ho         1 8BO       0.401500
     77 H41         13.4370     5.6600     4.9380 hc         1 8BO       0.057950
     78 H42         14.5260     4.6820     5.9410 hc         1 8BO       0.057950
     79 H43         14.3220     7.7140     5.8500 h1         1 8BO       0.046700
     80 H44         13.0080     7.1540     7.4370 ho         1 8BO       0.401500
     81 H45         17.4150     6.9000     8.3290 ha         1 8BO       0.121500
     82 H46         15.6020     6.7860     8.7980 ha         1 8BO       0.121500
@<TRIPOS>BOND
     1    36    35 2
     2    34    33 1
     3    35    33 1
     4    35    30 1
     5    33    32 1
     6    30    31 1
     7    30    29 1
     8    32    28 1
     9    29    28 1
    10    28    27 2
    11    27    26 1
    12    26    25 2
    13    25    24 1
    14    25    21 1
    15    23    24 1
    16    23    22 1
    17    10     9 1
    18    18    17 1
    19    24    17 1
    20    21    20 1
    21    22    16 1
    22    17    16 1
    23    17    19 1
    24     9     8 1
    25    20    19 1
    26    16    14 1
    27    13    14 1
    28    13    12 1
    29     8    11 1
    30     8     7 1
    31    11    12 1
    32    14    15 1
    33     7     4 ar
    34     7     6 ar
    35     4     3 ar
    36     6     5 ar
    37     3     2 ar
    38     5     2 ar
    39     2     1 1
    40     1    37 1
    41     3    38 1
    42     4    39 1
    43     5    40 1
    44     6    41 1
    45     8    42 1
    46    10    43 1
    47    10    44 1
    48    10    45 1
    49    11    46 1
    50    11    47 1
    51    12    48 1
    52    12    49 1
    53    13    50 1
    54    13    51 1
    55    14    52 1
    56    15    53 1
    57    15    54 1
    58    15    55 1
    59    16    56 1
    60    18    57 1
    61    18    58 1
    62    18    59 1
    63    19    60 1
    64    19    61 1
    65    20    62 1
    66    20    63 1
    67    21    64 1
    68    21    65 1
    69    22    66 1
    70    22    67 1
    71    23    68 1
    72    23    69 1
    73    24    70 1
    74    26    71 1
    75    27    72 1
    76    29    73 1
    77    29    74 1
    78    30    75 1
    79    31    76 1
    80    32    77 1
    81    32    78 1
    82    33    79 1
    83    34    80 1
    84    36    81 1
    85    36    82 1
@<TRIPOS>SUBSTRUCTURE
     1 8BO         1 TEMP              0 ****  ****    0 ROOT
