@<TRIPOS>MOLECULE
molecule
   56    59     1     0     0
SMALL
bcc


@<TRIPOS>ATOM
      1 C5           0.0000     0.0000     0.0000 c3         1 8BP       0.145800
      2 C6          -1.6030    -0.6920     1.5900 ca         1 8BP       0.919900
      3 C8          -3.6470    -1.3650     0.7430 ca         1 8BP       0.810200
      4 C10         -2.8790    -2.0780     2.9170 ca         1 8BP       0.498800
      5 N12         -3.3530    -2.8570     3.9420 na         1 8BP      -0.246000
      6 C13         -4.5840    -3.3160     3.5700 cc         1 8BP       0.410700
      7 C15         -2.6670    -3.1420     5.2030 c3         1 8BP       0.051000
      8 C17         -3.5170    -2.6420     6.3730 c3         1 8BP      -0.108600
      9 C20         -5.2530    -0.4040    -2.4450 cd         1 8BP      -0.159300
     10 C24         -5.2820     0.9130    -4.5910 c3         1 8BP       0.071600
     11 C28          2.7380     2.4510    -2.6850 c3         1 8BP      -0.158400
     12 C1           1.5400     0.0000     0.0000 c3         1 8BP       0.077700
     13 C2           1.9430     0.0000     1.4930 c3         1 8BP       0.143600
     14 C3           0.6810    -0.5640     2.1930 c3         1 8BP       0.145800
     15 N4          -0.4340     0.0300     1.4140 nh         1 8BP      -0.664300
     16 N7          -2.5110    -0.6870     0.6220 nb         1 8BP      -0.853000
     17 C9          -3.8730    -2.0930     1.9260 ca         1 8BP      -0.232200
     18 N11         -1.7730    -1.3680     2.7140 nb         1 8BP      -0.832000
     19 N14         -4.8860    -2.8670     2.3870 nd         1 8BP      -0.582100
     20 C16         -2.4540    -4.6520     5.3380 c3         1 8BP      -0.108600
     21 N18         -4.5880    -1.3540    -0.2700 nu         1 8BP      -0.714300
     22 C19         -4.4000    -0.5330    -1.3970 cc         1 8BP      -0.068700
     23 N21         -4.7010     0.4810    -3.3170 na         1 8BP       0.058400
     24 N22         -3.4800     0.9080    -2.7800 nd         1 8BP      -0.507800
     25 C23         -3.2960     0.2990    -1.6370 cc         1 8BP       0.335200
     26 F25          3.0470    -0.8320     1.7080 f          1 8BP      -0.233300
     27 N26          2.0490     1.2030    -0.6640 ns         1 8BP      -0.583900
     28 C27          2.2150     1.2140    -2.0010 c          1 8BP       0.658100
     29 C29          2.8320     2.2010    -4.1910 c3         1 8BP      -0.076100
     30 O30          1.9430     0.2290    -2.6550 o          1 8BP      -0.602100
     31 H1          -0.3680     0.8780    -0.5170 h1         1 8BP       0.078200
     32 H2          -0.3680    -0.8990    -0.4790 h1         1 8BP       0.078200
     33 H3          -5.2150    -3.9590     4.1710 h5         1 8BP       0.077800
     34 H4          -1.7070    -2.6400     5.2140 h1         1 8BP       0.091700
     35 H5          -4.3890    -3.2750     6.4820 hc         1 8BP       0.047867
     36 H6          -3.8320    -1.6240     6.1800 hc         1 8BP       0.047867
     37 H7          -2.9320    -2.6730     7.2840 hc         1 8BP       0.047867
     38 H8          -6.1460    -0.9920    -2.6160 h4         1 8BP       0.168000
     39 H9          -6.2510     1.3630    -4.4120 h1         1 8BP       0.052367
     40 H10         -5.3970     0.0560    -5.2440 h1         1 8BP       0.052367
     41 H11         -4.6280     1.6380    -5.0590 h1         1 8BP       0.052367
     42 H12          3.7210     2.6890    -2.2970 hc         1 8BP       0.058700
     43 H13          2.0660     3.2790    -2.4980 hc         1 8BP       0.058700
     44 H14          1.9130    -0.8920    -0.4880 h1         1 8BP       0.103700
     45 H15          2.1450     1.0090     1.8320 h1         1 8BP       0.070700
     46 H16          0.6410    -0.2380     3.2250 h1         1 8BP       0.076200
     47 H17          0.6600    -1.6450     2.1250 h1         1 8BP       0.076200
     48 H18         -2.0240    -5.0390     4.4220 hc         1 8BP       0.047867
     49 H19         -3.4050    -5.1360     5.5240 hc         1 8BP       0.047867
     50 H20         -1.7810    -4.8490     6.1640 hc         1 8BP       0.047867
     51 H21         -5.4000    -1.9360    -0.2060 hn         1 8BP       0.472800
     52 H22         -2.4400     0.4210    -0.9850 h4         1 8BP       0.095100
     53 H23          2.3150     2.0000    -0.1200 hn         1 8BP       0.317500
     54 H24          3.4870     1.3590    -4.3770 hc         1 8BP       0.044700
     55 H25          1.8450     1.9840    -4.5830 hc         1 8BP       0.044700
     56 H26          3.2280     3.0820    -4.6800 hc         1 8BP       0.044700
@<TRIPOS>BOND
     1    20     7 1   
     2     8     7 1   
     3     7     5 1   
     4     6     5 1   
     5     6    19 2   
     6     5     4 1   
     7    19    17 1   
     8     4    17 ar  
     9     4    18 ar  
    10    17     3 ar  
    11    18     2 ar  
    12     3    21 1   
    13     3    16 ar  
    14    21    22 1   
    15     2    16 ar  
    16     2    15 1   
    17    26    13 1   
    18    22    25 1   
    19    22     9 2   
    20    14    15 1   
    21    14    13 1   
    22    25    24 2   
    23    15     1 1   
    24    13    12 1   
    25     9    23 1   
    26    24    23 1   
    27     1    12 1   
    28    23    10 1   
    29    12    27 1   
    30    27    28 1   
    31    28    30 2   
    32    28    11 1   
    33    11    29 1   
    34     1    31 1   
    35     1    32 1   
    36     6    33 1   
    37     7    34 1   
    38     8    35 1   
    39     8    36 1   
    40     8    37 1   
    41     9    38 1   
    42    10    39 1   
    43    10    40 1   
    44    10    41 1   
    45    11    42 1   
    46    11    43 1   
    47    12    44 1   
    48    13    45 1   
    49    14    46 1   
    50    14    47 1   
    51    20    48 1   
    52    20    49 1   
    53    20    50 1   
    54    21    51 1   
    55    25    52 1   
    56    27    53 1   
    57    29    54 1   
    58    29    55 1   
    59    29    56 1   
@<TRIPOS>SUBSTRUCTURE
     1 8BP         1 TEMP              0 ****  ****    0 ROOT
