@<TRIPOS>MOLECULE
8BP
   56    59     1     0     0
SMALL
bcc


@<TRIPOS>ATOM
      1 C5           0.0000     0.0000     0.0000 c3         1 8BP       0.125800
      2 C6          -1.6030    -0.6920     1.5900 ca         1 8BP       0.757900
      3 C8          -3.6470    -1.3650     0.7430 ca         1 8BP       0.602200
      4 C10         -2.8790    -2.0780     2.9170 ca         1 8BP       0.294800
      5 N12         -3.3530    -2.8570     3.9420 na         1 8BP       0.217000
      6 C13         -4.5840    -3.3160     3.5700 cc         1 8BP       0.229700
      7 C15         -2.6670    -3.1420     5.2030 c3         1 8BP      -0.066000
      8 C17         -3.5170    -2.6420     6.3730 c3         1 8BP      -0.010600
      9 C20         -5.2530    -0.4040    -2.4450 cc         1 8BP      -0.286300
     10 C24         -5.2820     0.9130    -4.5910 c3         1 8BP       0.027600
     11 C28          2.7380     2.4510    -2.6850 c3         1 8BP      -0.095400
     12 C1           1.5400     0.0000     0.0000 c3         1 8BP      -0.017300
     13 C2           1.9430     0.0000     1.4930 c3         1 8BP       0.160600
     14 C3           0.6810    -0.5640     2.1930 c3         1 8BP       0.128800
     15 N4          -0.4340     0.0300     1.4140 nh         1 8BP      -0.450300
     16 N7          -2.5110    -0.6870     0.6220 nb         1 8BP      -0.753000
     17 C9          -3.8730    -2.0930     1.9260 ca         1 8BP      -0.266200
     18 N11         -1.7730    -1.3680     2.7140 nb         1 8BP      -0.717000
     19 N14         -4.8860    -2.8670     2.3870 nd         1 8BP      -0.488100
     20 C16         -2.4540    -4.6520     5.3380 c3         1 8BP      -0.010600
     21 N18         -4.5880    -1.3540    -0.2700 nu         1 8BP      -0.204300
     22 C19         -4.4000    -0.5330    -1.3970 cd         1 8BP      -0.242700
     23 N21         -4.7010     0.4810    -3.3170 na         1 8BP       0.484400
     24 N22         -3.4800     0.9080    -2.7800 nc         1 8BP      -0.638800
     25 C23         -3.2960     0.2990    -1.6370 cd         1 8BP       0.376200
     26 F25          3.0470    -0.8320     1.7080 f          1 8BP      -0.220300
     27 N26          2.0490     1.2030    -0.6640 ns         1 8BP      -0.194900
     28 C27          2.2150     1.2140    -2.0010 c          1 8BP       0.574100
     29 C29          2.8320     2.2010    -4.1910 c3         1 8BP       0.020900
     30 O30          1.9430     0.2290    -2.6550 o          1 8BP      -0.639100
     31 H1          -0.3680     0.8780    -0.5170 h1         1 8BP       0.046700
     32 H2          -0.3680    -0.8990    -0.4790 h1         1 8BP       0.046700
     33 H3          -5.2150    -3.9590     4.1710 h5         1 8BP       0.033800
     34 H4          -1.7070    -2.6400     5.2140 h1         1 8BP       0.064700
     35 H5          -4.3890    -3.2750     6.4820 hc         1 8BP       0.015200
     36 H6          -3.8320    -1.6240     6.1800 hc         1 8BP       0.015200
     37 H7          -2.9320    -2.6730     7.2840 hc         1 8BP       0.015200
     38 H8          -6.1460    -0.9920    -2.6160 h4         1 8BP       0.146000
     39 H9          -6.2510     1.3630    -4.4120 h1         1 8BP       0.019367
     40 H10         -5.3970     0.0560    -5.2440 h1         1 8BP       0.019367
     41 H11         -4.6280     1.6380    -5.0590 h1         1 8BP       0.019367
     42 H12          3.7210     2.6890    -2.2970 hc         1 8BP       0.024700
     43 H13          2.0660     3.2790    -2.4980 hc         1 8BP       0.024700
     44 H14          1.9130    -0.8920    -0.4880 h1         1 8BP       0.077700
     45 H15          2.1450     1.0090     1.8320 h1         1 8BP       0.039700
     46 H16          0.6410    -0.2380     3.2250 h1         1 8BP       0.042700
     47 H17          0.6600    -1.6450     2.1250 h1         1 8BP       0.042700
     48 H18         -2.0240    -5.0390     4.4220 hc         1 8BP       0.015200
     49 H19         -3.4050    -5.1360     5.5240 hc         1 8BP       0.015200
     50 H20         -1.7810    -4.8490     6.1640 hc         1 8BP       0.015200
     51 H21         -5.4000    -1.9360    -0.2060 hn         1 8BP       0.292800
     52 H22         -2.4400     0.4210    -0.9850 h4         1 8BP       0.061100
     53 H23          2.3150     2.0000    -0.1200 hn         1 8BP       0.176500
     54 H24          3.4870     1.3590    -4.3770 hc         1 8BP       0.009367
     55 H25          1.8450     1.9840    -4.5830 hc         1 8BP       0.009367
     56 H26          3.2280     3.0820    -4.6800 hc         1 8BP       0.009367
@<TRIPOS>BOND
     1     1    12 1   
     2     1    15 1   
     3     1    31 1   
     4     1    32 1   
     5     2    15 1   
     6     2    16 ar  
     7     2    18 ar  
     8     3    16 ar  
     9     3    17 ar  
    10     3    21 1   
    11     4     5 1   
    12     4    17 ar  
    13     4    18 ar  
    14     5     6 1   
    15     5     7 1   
    16     6    19 2   
    17     6    33 1   
    18     7     8 1   
    19     7    20 1   
    20     7    34 1   
    21     8    35 1   
    22     8    36 1   
    23     8    37 1   
    24     9    22 2   
    25     9    23 1   
    26     9    38 1   
    27    10    23 1   
    28    10    39 1   
    29    10    40 1   
    30    10    41 1   
    31    11    28 1   
    32    11    29 1   
    33    11    42 1   
    34    11    43 1   
    35    12    13 1   
    36    12    27 1   
    37    12    44 1   
    38    13    14 1   
    39    13    26 1   
    40    13    45 1   
    41    14    15 1   
    42    14    46 1   
    43    14    47 1   
    44    17    19 1   
    45    20    48 1   
    46    20    49 1   
    47    20    50 1   
    48    21    22 1   
    49    21    51 1   
    50    22    25 1   
    51    23    24 1   
    52    24    25 2   
    53    25    52 1   
    54    27    28 1   
    55    27    53 1   
    56    28    30 2   
    57    29    54 1   
    58    29    55 1   
    59    29    56 1   
@<TRIPOS>SUBSTRUCTURE
     1 8BP         1 TEMP              0 ****  ****    0 ROOT
