@<TRIPOS>MOLECULE
8BQ
   41    44     1     0     0
SMALL
bcc


@<TRIPOS>ATOM
      1 F01          0.0000     0.0000     0.0000 f          1 8BQ      -0.126900
      2 C02          1.3510     0.0000     0.0000 ca         1 8BQ       0.092900
      3 C03          2.0420     0.0000     1.2010 ca         1 8BQ      -0.104000
      4 C04          3.4270     0.0010     1.2110 ca         1 8BQ      -0.090000
      5 C05          4.1280     0.0000     0.0250 ca         1 8BQ      -0.049000
      6 C06          3.4390     0.0000    -1.1930 ca         1 8BQ      -0.158600
      7 C07          2.0410    -0.0060    -1.1960 ca         1 8BQ      -0.104000
      8 C08          4.1820     0.0000    -2.4630 c          1 8BQ       0.634700
      9 O09          5.3950     0.0010    -2.4560 o          1 8BQ      -0.536100
     10 C10          3.4360    -0.0000    -3.7720 c3         1 8BQ      -0.154700
     11 C11          3.2020     1.4470    -4.2560 c3         1 8BQ       0.157800
     12 N12          4.3290     1.7180    -5.1840 n7         1 8BQ      -0.571200
     13 C13          4.5000     0.4460    -5.9330 c3         1 8BQ       0.142800
     14 C14          4.2900    -0.6580    -4.8750 c3         1 8BQ       0.000600
     15 C15          3.5550    -1.8270    -5.4780 ca         1 8BQ      -0.054300
     16 C16          4.1090    -3.0860    -5.4130 ca         1 8BQ      -0.084000
     17 C17          3.4300    -4.1710    -5.9710 ca         1 8BQ       0.153400
     18 C18          2.1800    -3.9580    -6.5950 ca         1 8BQ      -0.215600
     19 C19          1.6370    -2.6770    -6.6510 ca         1 8BQ      -0.013000
     20 C20          2.3240    -1.6240    -6.0880 ca         1 8BQ      -0.135000
     21 C21          1.4910    -5.1210    -7.1740 c          1 8BQ       0.617100
     22 O22          0.4130    -5.0060    -7.7260 o          1 8BQ      -0.661500
     23 N23          2.1030    -6.3240    -7.0680 ns         1 8BQ      -0.019400
     24 C24          3.3070    -6.4360    -6.4490 cc         1 8BQ       0.331800
     25 N25          3.9400    -5.4280    -5.9300 nd         1 8BQ      -0.538100
     26 H10          2.4900    -0.5190    -3.6720 hc         1 8BQ       0.055700
     27 H20          1.9000    -0.6270    -6.1220 ha         1 8BQ       0.112000
     28 H11          3.2300     2.1340    -3.4190 h1         1 8BQ       0.014200
     29 H11A         2.2570     1.5200    -4.7810 h1         1 8BQ       0.014200
     30 HN12         4.0710     2.4470    -5.8190 hn         1 8BQ       0.253800
     31 H03          1.4960     0.0000     2.1370 ha         1 8BQ       0.119000
     32 H13          3.7530     0.3660    -6.7140 h1         1 8BQ       0.019200
     33 HN23         1.6640    -7.1390    -7.4500 hn         1 8BQ       0.182500
     34 H13A         5.4980     0.3850    -6.3480 h1         1 8BQ       0.019200
     35 H04          3.9600     0.0010     2.1540 ha         1 8BQ       0.112000
     36 H14          5.2440    -0.9740    -4.4710 hc         1 8BQ       0.071700
     37 H24          3.7630    -7.4160    -6.3860 h5         1 8BQ       0.003800
     38 H05          5.2110     0.0030     0.0350 ha         1 8BQ       0.128000
     39 H16          5.0130    -3.2500    -4.8390 ha         1 8BQ       0.128000
     40 H07          1.5000    -0.0060    -2.1350 ha         1 8BQ       0.126000
     41 H19          0.6770    -2.5110    -7.1250 ha         1 8BQ       0.125000
@<TRIPOS>BOND
     1     1     2 1   
     2     2     3 ar  
     3     2     7 ar  
     4     3     4 ar  
     5     3    31 1   
     6     4     5 ar  
     7     4    35 1   
     8     5     6 ar  
     9     5    38 1   
    10     6     7 ar  
    11     6     8 1   
    12     7    40 1   
    13     8     9 2   
    14     8    10 1   
    15    10    11 1   
    16    10    14 1   
    17    10    26 1   
    18    11    12 1   
    19    11    28 1   
    20    11    29 1   
    21    12    13 1   
    22    12    30 1   
    23    13    14 1   
    24    13    32 1   
    25    13    34 1   
    26    14    15 1   
    27    14    36 1   
    28    15    16 ar  
    29    15    20 ar  
    30    16    17 ar  
    31    16    39 1   
    32    17    18 ar  
    33    17    25 1   
    34    18    19 ar  
    35    18    21 1   
    36    19    20 ar  
    37    19    41 1   
    38    20    27 1   
    39    21    22 2   
    40    21    23 1   
    41    23    24 1   
    42    23    33 1   
    43    24    25 2   
    44    24    37 1   
@<TRIPOS>SUBSTRUCTURE
     1 8BQ         1 TEMP              0 ****  ****    0 ROOT
