@<TRIPOS>MOLECULE
8BR
   35    37     1     0     0
SMALL
bcc


@<TRIPOS>ATOM
      1 P            0.0000     0.0000     0.0000 p5         1 8BR       0.684900
      2 O1P          1.4800     0.0000     0.0000 o          1 8BR      -0.736167
      3 O2P         -0.5370     0.0000     1.5180 o          1 8BR      -0.736167
      4 O3P         -0.5370    -1.3150    -0.7580 o          1 8BR      -0.736167
      5 O5'         -0.5360     1.3140    -0.7580 os         1 8BR      -0.442200
      6 C5'         -0.0290     1.2570    -2.0930 c3         1 8BR       0.232400
      7 C4'         -0.5060     2.4850    -2.8720 c3         1 8BR       0.145100
      8 O4'         -0.0050     3.6930    -2.2620 os         1 8BR      -0.325600
      9 C3'          0.0930     2.4850    -4.2960 c3         1 8BR       0.130100
     10 O3'         -0.8510     1.9670    -5.2370 oh         1 8BR      -0.566800
     11 C2'          0.3810     3.9760    -4.5830 c3         1 8BR       0.114100
     12 O2'         -0.3740     4.4250    -5.7100 oh         1 8BR      -0.561800
     13 C1'         -0.0740     4.6980    -3.2960 c3         1 8BR       0.113800
     14 N9           0.8280     5.8100    -2.9880 na         1 8BR       0.259000
     15 C8           0.6840     7.1040    -3.3920 cc         1 8BR       0.194800
     16 Br8         -0.7370     7.7540    -4.4580 br         1 8BR      -0.098300
     17 N7           1.6680     7.8250    -2.9380 nd         1 8BR      -0.505100
     18 C5           2.4990     7.0440    -2.2080 ca         1 8BR      -0.257200
     19 C6           3.6950     7.2620    -1.5040 ca         1 8BR       0.571200
     20 N6           4.2620     8.5230    -1.4460 nv         1 8BR      -0.524500
     21 N1           4.2650     6.2300    -0.8880 nb         1 8BR      -0.754000
     22 C2           3.7310     5.0240    -0.9380 ca         1 8BR       0.669900
     23 N3           2.6160     4.7720    -1.5910 nb         1 8BR      -0.577000
     24 C4           1.9740     5.7400    -2.2360 ca         1 8BR       0.281800
     25 H5'1         1.0540     1.2430    -2.0680 h1         1 8BR       0.012200
     26 H5'2        -0.3910     0.3590    -2.5780 h1         1 8BR       0.012200
     27 H4'         -1.5880     2.5110    -2.9210 h1         1 8BR       0.027700
     28 H3'          1.0120     1.9130    -4.3180 h1         1 8BR       0.026700
     29 HO3'        -0.4480     1.2790    -5.7400 ho         1 8BR       0.374000
     30 H2'          1.4410     4.1300    -4.7450 h1         1 8BR       0.008700
     31 HO2'         0.2010     4.5420    -6.4480 ho         1 8BR       0.371000
     32 H1'         -1.0920     5.0520    -3.4050 h2         1 8BR       0.050700
     33 HN61         3.8230     9.2920    -1.9120 hn         1 8BR       0.265800
     34 HN62         5.1130     8.6660    -0.9380 hn         1 8BR       0.265800
     35 H2           4.2280     4.2120    -0.4220 h5         1 8BR       0.010100
@<TRIPOS>BOND
     1     1     2 1   
     2     1     3 1   
     3     1     4 1   
     4     1     5 1   
     5     5     6 1   
     6     6     7 1   
     7     6    25 1   
     8     6    26 1   
     9     7     8 1   
    10     7     9 1   
    11     7    27 1   
    12     8    13 1   
    13     9    10 1   
    14     9    11 1   
    15     9    28 1   
    16    10    29 1   
    17    11    12 1   
    18    11    13 1   
    19    11    30 1   
    20    12    31 1   
    21    13    14 1   
    22    13    32 1   
    23    14    15 1   
    24    14    24 1   
    25    15    16 1   
    26    15    17 2   
    27    17    18 1   
    28    18    19 ar  
    29    18    24 ar  
    30    19    20 1   
    31    19    21 ar  
    32    20    33 1   
    33    20    34 1   
    34    21    22 ar  
    35    22    23 ar  
    36    22    35 1   
    37    23    24 ar  
@<TRIPOS>SUBSTRUCTURE
     1 8BR         1 TEMP              0 ****  ****    0 ROOT
