@<TRIPOS>MOLECULE
molecule
   54    57     1     0     0
SMALL
bcc


@<TRIPOS>ATOM
      1 C5           0.0000     0.0000     0.0000 c3         1 8BS       0.146800
      2 C6          -1.6030    -0.6920     1.5880 ca         1 8BS       0.918900
      3 C8          -3.6670    -1.3290     0.7610 ca         1 8BS       0.806200
      4 C10         -2.8610    -2.1120     2.8970 ca         1 8BS       0.496800
      5 N12         -3.3200    -2.9200     3.9060 na         1 8BS      -0.252000
      6 C13         -4.5600    -3.3620     3.5430 cc         1 8BS       0.406700
      7 C15         -2.6110    -3.2480     5.1450 c3         1 8BS       0.043600
      8 C17         -4.4550    -0.4250    -1.3380 cc         1 8BS      -0.083700
      9 C21         -5.3620    -0.2470    -2.3980 cc         1 8BS       0.555600
     10 C1           1.5400     0.0000     0.0000 c3         1 8BS       0.076700
     11 C2           1.9430     0.0000     1.4930 c3         1 8BS       0.144600
     12 C3           0.6810    -0.5640     2.1920 c3         1 8BS       0.146800
     13 N4          -0.4340     0.0310     1.4130 nh         1 8BS      -0.665300
     14 N7          -2.5290    -0.6530     0.6390 nb         1 8BS      -0.865000
     15 C9          -3.8730    -2.0920     1.9240 ca         1 8BS      -0.228200
     16 N11         -1.7550    -1.4020     2.6950 nb         1 8BS      -0.832000
     17 N14         -4.8820    -2.8750     2.3810 nd         1 8BS      -0.575100
     18 N16         -4.6270    -1.2820    -0.2330 nu         1 8BS      -0.700300
     19 C18         -3.3810     0.3710    -1.5730 cd         1 8BS      -0.101300
     20 N19         -3.6050     1.0290    -2.7420 na         1 8BS       0.059400
     21 N20         -4.8510     0.6230    -3.2350 nd         1 8BS      -0.580800
     22 O22         -6.5640    -0.8710    -2.5320 os         1 8BS      -0.431100
     23 C23         -7.3380    -0.5470    -3.6890 c3         1 8BS       0.134700
     24 F25          3.0470    -0.8320     1.7070 f          1 8BS      -0.231300
     25 N26          2.0490     1.2020    -0.6630 ns         1 8BS      -0.583900
     26 C27          2.2160     1.2140    -2.0010 c          1 8BS       0.656100
     27 C29          2.8330     2.2000    -4.1910 c3         1 8BS      -0.076100
     28 O30          1.9440     0.2290    -2.6550 o          1 8BS      -0.603100
     29 H1          -0.3680     0.8780    -0.5170 h1         1 8BS       0.073200
     30 H2          -0.3680    -0.8990    -0.4790 h1         1 8BS       0.073200
     31 H3          -5.1830    -4.0210     4.1350 h5         1 8BS       0.078800
     32 H4          -1.7190    -3.8160     4.9110 h1         1 8BS       0.055700
     33 H5          -3.2570    -3.8380     5.7850 h1         1 8BS       0.055700
     34 H6          -2.3340    -2.3340     5.6550 h1         1 8BS       0.055700
     35 H7          -1.9070     1.4630    -3.8840 h1         1 8BS       0.053367
     36 H8          -2.2740     2.6380    -2.6140 h1         1 8BS       0.053367
     37 H9          -3.2540     2.5920    -4.0870 h1         1 8BS       0.053367
     38 H10          2.0660     3.2790    -2.4980 hc         1 8BS       0.058700
     39 H11          3.7220     2.6910    -2.2960 hc         1 8BS       0.058700
     40 H12          1.9130    -0.8920    -0.4880 h1         1 8BS       0.105700
     41 H13          2.1450     1.0090     1.8310 h1         1 8BS       0.070700
     42 H14          0.6410    -0.2380     3.2250 h1         1 8BS       0.077700
     43 H15          0.6600    -1.6450     2.1240 h1         1 8BS       0.077700
     44 H16         -5.4450    -1.8540    -0.1660 hn         1 8BS       0.485800
     45 H17         -2.5050     0.4650    -0.9430 h4         1 8BS       0.225000
     46 H18         -7.5590     0.5130    -3.6900 h1         1 8BS       0.045033
     47 H19         -6.7780    -0.8000    -4.5810 h1         1 8BS       0.045033
     48 H20         -8.2640    -1.1090    -3.6730 h1         1 8BS       0.045033
     49 H21          2.2990     2.0060    -0.1210 hn         1 8BS       0.317500
     50 H22          3.2060     3.0900    -4.6830 hc         1 8BS       0.044700
     51 H23          1.8510     1.9580    -4.5780 hc         1 8BS       0.044700
     52 H24          3.5090     1.3740    -4.3790 hc         1 8BS       0.044700
     53 C24         -2.7010     1.9930    -3.3730 c3         1 8BS       0.075600
     54 C28          2.7390     2.4510    -2.6850 c3         1 8BS      -0.159400
@<TRIPOS>BOND
     1     7     5 1
     2     6     5 1
     3     6    17 2
     4     5     4 1
     5    17    15 1
     6     4    15 ar
     7     4    16 ar
     8    15     3 ar
     9    23    22 1
    10    22     9 1
    11    16     2 ar
    12     3    18 1
    13     3    14 ar
    14    18     8 1
    15     2    14 ar
    16     2    13 1
    17    24    11 1
    18     9     8 1
    19     9    21 2
    20     8    19 2
    21    12    13 1
    22    12    11 1
    23    13     1 1
    24    21    20 1
    25    11    10 1
    26    19    20 1
    27     1    10 1
    28    20    53 1
    29    10    25 1
    30    25    26 1
    31    26    28 2
    32    26    54 1
    33    54    27 1
    34     1    29 1
    35     1    30 1
    36     6    31 1
    37     7    32 1
    38     7    33 1
    39     7    34 1
    40    53    35 1
    41    53    36 1
    42    53    37 1
    43    54    38 1
    44    54    39 1
    45    10    40 1
    46    11    41 1
    47    12    42 1
    48    12    43 1
    49    18    44 1
    50    19    45 1
    51    23    46 1
    52    23    47 1
    53    23    48 1
    54    25    49 1
    55    27    50 1
    56    27    51 1
    57    27    52 1
@<TRIPOS>SUBSTRUCTURE
     1 8BS         1 TEMP              0 ****  ****    0 ROOT
