@<TRIPOS>MOLECULE
molecule
   45    47     1     0     0
SMALL
bcc


@<TRIPOS>ATOM
      1 PG           0.0000     0.0000     0.0000 p5         1 8BU       1.331900
      2 O1G          1.4800     0.0000     0.0000 o          1 8BU      -0.836167
      3 O2G         -0.5370     0.0000     1.5180 o          1 8BU      -0.836167
      4 O3G         -0.5370     1.3140    -0.7600 o          1 8BU      -0.836167
      5 PB          -0.0710    -2.1130    -2.0780 p5         1 8BU       1.273600
      6 O1B          1.3210    -2.5850    -1.9060 o          1 8BU      -0.801500
      7 O2B         -0.1510    -1.1330    -3.3540 o          1 8BU      -0.801500
      8 O3B         -0.5360    -1.3160    -0.7590 os         1 8BU      -0.727800
      9 PA          -0.6440    -4.4460    -3.8360 p5         1 8BU       1.134600
     10 O1A          0.7470    -4.9180    -3.6640 o          1 8BU      -0.791000
     11 O2A         -0.7240    -3.4650    -5.1120 o          1 8BU      -0.791000
     12 N9          -5.6760    -7.8680    -6.7050 na         1 8BU      -0.248000
     13 C8          -5.7210    -6.7130    -7.4290 cc         1 8BU       0.392700
     14 N7          -6.8370    -6.6510    -8.0960 nd         1 8BU      -0.622100
     15 C5          -7.5760    -7.7580    -7.8450 ca         1 8BU      -0.171200
     16 C6          -8.8300    -8.2270    -8.2690 ca         1 8BU       0.619200
     17 N6          -9.6000    -7.4890    -9.1510 nv         1 8BU      -1.061500
     18 N1          -9.2600    -9.3960    -7.8050 nb         1 8BU      -0.777000
     19 C2          -8.5320   -10.1070    -6.9650 ca         1 8BU       0.594900
     20 N3          -7.3510    -9.7080    -6.5390 nb         1 8BU      -0.798000
     21 C4          -6.8390    -8.5520    -6.9480 ca         1 8BU       0.458800
     22 C01         -1.1700    -3.5430    -2.3430 c3         1 8BU      -0.153800
     23 O5'         -1.6150    -5.7090    -4.0700 os         1 8BU      -0.580200
     24 C5'         -1.4010    -6.6750    -5.1010 c3         1 8BU       0.234400
     25 C4'         -2.5010    -7.7370    -5.0420 c3         1 8BU       0.125100
     26 C3'         -2.2220    -8.8580    -6.0660 c3         1 8BU       0.078100
     27 O3'         -1.6080    -9.9790    -5.4260 oh         1 8BU      -0.584800
     28 C2'         -3.6220    -9.2390    -6.5980 c3         1 8BU       0.076100
     29 O2'         -3.9160   -10.6050    -6.3020 oh         1 8BU      -0.573800
     30 C1'         -4.5820    -8.3010    -5.8320 c3         1 8BU       0.256800
     31 O4'         -3.7670    -7.1720    -5.4490 os         1 8BU      -0.366600
     32 F01         -2.4860    -3.0960    -2.5070 f          1 8BU      -0.267300
     33 H7          -5.0360    -5.8760    -7.4950 h5         1 8BU       0.101800
     34 H8         -10.2310    -6.7940    -8.8030 hn         1 8BU       0.407300
     35 H9          -9.4790    -7.6040   -10.1380 hn         1 8BU       0.407300
     36 H10         -8.9200   -11.0540    -6.6110 h5         1 8BU       0.017100
     37 H11         -1.1170    -4.2020    -1.4850 h1         1 8BU       0.030700
     38 H12         -0.4360    -7.1470    -4.9590 h1         1 8BU       0.030200
     39 H13         -1.4250    -6.1840    -6.0660 h1         1 8BU       0.030200
     40 H14         -2.5800    -8.1520    -4.0440 h1         1 8BU       0.076700
     41 H15         -1.6000    -8.4860    -6.8720 h1         1 8BU       0.047700
     42 H16         -0.8370   -10.2320    -5.9060 ho         1 8BU       0.384000
     43 H17         -3.6840    -9.0530    -7.6640 h1         1 8BU       0.042700
     44 H18         -3.7130   -11.1400    -7.0520 ho         1 8BU       0.381000
     45 H19         -4.9690    -8.7990    -4.9520 h2         1 8BU       0.092700
@<TRIPOS>BOND
     1     1     2 1
     2     1     3 1
     3     1     4 1
     4     1     8 1
     5     5     6 1
     6     5     7 1
     7     5     8 1
     8     5    22 1
     9     9    10 1
    10     9    11 1
    11     9    22 1
    12     9    23 1
    13    12    13 1
    14    12    21 1
    15    12    30 1
    16    13    14 2
    17    14    15 1
    18    15    16 ar
    19    15    21 ar
    20    16    17 1
    21    16    18 ar
    22    18    19 ar
    23    19    20 ar
    24    20    21 ar
    25    22    32 1
    26    23    24 1
    27    24    25 1
    28    25    26 1
    29    25    31 1
    30    26    27 1
    31    26    28 1
    32    28    29 1
    33    28    30 1
    34    30    31 1
    35    13    33 1
    36    17    34 1
    37    17    35 1
    38    19    36 1
    39    22    37 1
    40    24    38 1
    41    24    39 1
    42    25    40 1
    43    26    41 1
    44    27    42 1
    45    28    43 1
    46    29    44 1
    47    30    45 1
@<TRIPOS>SUBSTRUCTURE
     1 8BU         1 TEMP              0 ****  ****    0 ROOT
