@<TRIPOS>MOLECULE
molecule
   27    27     1     0     0
SMALL
bcc


@<TRIPOS>ATOM
      1 C4           0.0000     0.0000     0.0000 ca         1 8BV      -0.013000
      2 C5          -0.0260    -0.0030     2.3960 ca         1 8BV      -0.085000
      3 C6           1.3820     0.0000     0.0000 ca         1 8BV      -0.221000
      4 C7           1.3710     0.0010     2.4110 ca         1 8BV      -0.257600
      5 C8           2.0760     0.0000     1.2000 ca         1 8BV       0.251100
      6 C10          2.0990    -0.0030     3.6930 c          1 8BV       0.502700
      7 C1           5.4790     0.7120     0.1320 c3         1 8BV      -0.106600
      8 C2           4.2030    -1.2630    -0.7100 c3         1 8BV      -0.106600
      9 C3          -0.7010     0.0020     1.1950 ca         1 8BV      -0.148000
     10 C9           4.0830     0.1200    -0.0660 c3         1 8BV       0.127100
     11 N11          1.4180    -0.0120     4.8560 nz         1 8BV      -0.677400
     12 O12          3.3150     0.0010     3.7020 o          1 8BV      -0.405100
     13 O13          3.4330    -0.0000     1.2000 os         1 8BV      -0.296900
     14 H1          -0.5380     0.0020    -0.9400 ha         1 8BV       0.164000
     15 H2          -0.5780    -0.0020     3.3280 ha         1 8BV       0.112000
     16 H3           1.9230    -0.0010    -0.9390 ha         1 8BV       0.174000
     17 H4           5.9970     0.7420    -0.8190 hc         1 8BV       0.057700
     18 H5           5.3930     1.7170     0.5280 hc         1 8BV       0.057700
     19 H6           6.0380     0.0970     0.8270 hc         1 8BV       0.057700
     20 H7           3.4320    -1.9140    -0.3150 hc         1 8BV       0.057700
     21 H8           4.0840    -1.1730    -1.7830 hc         1 8BV       0.057700
     22 H9           5.1770    -1.6810    -0.4890 hc         1 8BV       0.057700
     23 H10         -1.7840    -0.0000     1.1850 ha         1 8BV       0.162000
     24 H11          3.5030     0.7690    -0.7100 h1         1 8BV       0.053700
     25 H12          0.8440    -0.8300     4.9000 hn         1 8BV       0.474133
     26 H13          2.0630    -0.0150     5.6210 hn         1 8BV       0.474133
     27 H113         0.8400     0.8040     4.9110 hn         1 8BV       0.474133
@<TRIPOS>BOND
     1     8    10 1   
     2     7    10 1   
     3    10    13 1   
     4    13     5 1   
     5    11     6 1   
     6     5     3 ar  
     7     5     4 ar  
     8     3     1 ar  
     9     6     4 1   
    10     6    12 2   
    11     4     2 ar  
    12     1     9 ar  
    13     2     9 ar  
    14     1    14 1   
    15     2    15 1   
    16     3    16 1   
    17     7    17 1   
    18     7    18 1   
    19     7    19 1   
    20     8    20 1   
    21     8    21 1   
    22     8    22 1   
    23     9    23 1   
    24    10    24 1   
    25    11    25 1   
    26    11    26 1   
    27    27    11 1   
@<TRIPOS>SUBSTRUCTURE
     1 8BV         1 TEMP              0 ****  ****    0 ROOT
