@<TRIPOS>MOLECULE
8BX
   56    58     1     0     0
SMALL
bcc


@<TRIPOS>ATOM
      1 N01          0.0000     0.0000     0.0000 nb         1 8BX      -0.632000
      2 C02          1.3240     0.0000     0.0000 ca         1 8BX       0.507200
      3 N02          2.0140     0.0010    -1.2060 nv         1 8BX      -0.581500
      4 C03          2.0310     0.0000     1.1980 ca         1 8BX      -0.283300
      5 C04          1.3330    -0.0010     2.3920 ca         1 8BX      -0.023300
      6 C05         -0.0560    -0.0000     2.3470 ca         1 8BX      -0.266300
      7 C06         -0.6930    -0.0000     1.1220 ca         1 8BX       0.413600
      8 C07          2.0610    -0.0000     3.7110 c3         1 8BX       0.061200
      9 C08         -2.1990    -0.0010     1.0680 c3         1 8BX      -0.065700
     10 O09         -4.7590     0.0590     0.8270 os         1 8BX      -0.389600
     11 N1'         -3.4990     3.3950     0.6350 n7         1 8BX      -0.581200
     12 C10         -5.9810    -0.4440     0.2820 c3         1 8BX       0.210400
     13 C11         -6.4660    -1.6250     1.1240 c3         1 8BX       0.138800
     14 N12         -6.8060    -1.1570     2.4750 n7         1 8BX      -0.561200
     15 C13         -7.2770    -2.2670     3.3140 c3         1 8BX       0.086800
     16 C14         -7.6220    -1.7400     4.7090 c3         1 8BX       0.450900
     17 F15         -6.4810    -1.1710     5.2860 f          1 8BX      -0.214300
     18 F16         -8.6260    -0.7720     4.6080 f          1 8BX      -0.214300
     19 C2'         -2.3370     2.5140     0.9220 c3         1 8BX       0.137800
     20 C21         -8.1050    -2.8790     5.5700 ca         1 8BX      -0.172300
     21 C22         -8.4760    -2.6440     6.8830 ca         1 8BX       0.003400
     22 Cl22        -8.3850    -1.0400     7.5370 cl         1 8BX       0.011600
     23 C23         -8.9210    -3.6900     7.6710 ca         1 8BX      -0.104000
     24 C24         -8.9940    -4.9680     7.1490 ca         1 8BX      -0.066000
     25 C25         -8.6220    -5.2010     5.8390 ca         1 8BX      -0.106000
     26 C26         -8.1830    -4.1560     5.0480 ca         1 8BX      -0.068000
     27 C3'         -2.6780     1.1810     0.2220 c3         1 8BX      -0.050700
     28 C4'         -4.2160     1.1690     0.1090 c3         1 8BX       0.172100
     29 C5'         -4.6760     2.4970     0.7500 c3         1 8BX       0.108800
     30 HN02         2.8090     0.5980    -1.3280 hn         1 8BX       0.270300
     31 HN0A         1.7040    -0.5780    -1.9610 hn         1 8BX       0.270300
     32 H03          3.1150    -0.0000     1.1960 ha         1 8BX       0.118000
     33 H05         -0.6330    -0.0000     3.2640 ha         1 8BX       0.122000
     34 H07          2.0380     0.9960     4.1360 hc         1 8BX       0.009700
     35 H07A         1.5790    -0.6930     4.3900 hc         1 8BX       0.009700
     36 H07B         3.0890    -0.3030     3.5560 hc         1 8BX       0.009700
     37 H08         -2.5440    -0.9260     0.6240 hc         1 8BX       0.036200
     38 H08A        -2.5960     0.0880     2.0720 hc         1 8BX       0.036200
     39 HN1'        -3.5560     4.1110     1.3330 hn         1 8BX       0.252800
     40 H10         -6.7300     0.3380     0.2910 h1         1 8BX      -0.006800
     41 H10A        -5.8140    -0.7720    -0.7370 h1         1 8BX      -0.006800
     42 H11         -7.3430    -2.0620     0.6620 h1         1 8BX       0.013700
     43 H11A        -5.6820    -2.3700     1.1870 h1         1 8BX       0.013700
     44 HN12        -7.5190    -0.4570     2.4160 hn         1 8BX       0.262800
     45 H13         -6.4990    -3.0160     3.3930 h1         1 8BX       0.034200
     46 H13A        -8.1600    -2.7080     2.8670 h1         1 8BX       0.034200
     47 H2'         -2.2340     2.3630     1.9890 h1         1 8BX       0.016700
     48 H2'A        -1.4310     2.9370     0.5040 h1         1 8BX       0.016700
     49 H23         -9.2120    -3.5080     8.6990 ha         1 8BX       0.119000
     50 H24         -9.3400    -5.7870     7.7680 ha         1 8BX       0.107000
     51 H25         -8.6810    -6.2030     5.4290 ha         1 8BX       0.109000
     52 H26         -7.8920    -4.3390     4.0200 ha         1 8BX       0.118000
     53 H3'         -2.2310     1.1510    -0.7640 hc         1 8BX       0.054700
     54 H4'         -4.5140     1.1340    -0.9310 h1         1 8BX       0.016700
     55 H5'         -5.5170     2.9060     0.2040 h1         1 8BX       0.019700
     56 H5'A        -4.9310     2.3430     1.7920 h1         1 8BX       0.019700
@<TRIPOS>BOND
     1     1     2 ar  
     2     1     7 ar  
     3     2     3 1   
     4     2     4 ar  
     5     3    30 1   
     6     3    31 1   
     7     4     5 ar  
     8     4    32 1   
     9     5     6 ar  
    10     5     8 1   
    11     6     7 ar  
    12     6    33 1   
    13     7     9 1   
    14     8    34 1   
    15     8    35 1   
    16     8    36 1   
    17     9    27 1   
    18     9    37 1   
    19     9    38 1   
    20    10    12 1   
    21    10    28 1   
    22    11    19 1   
    23    11    29 1   
    24    11    39 1   
    25    12    13 1   
    26    12    40 1   
    27    12    41 1   
    28    13    14 1   
    29    13    42 1   
    30    13    43 1   
    31    14    15 1   
    32    14    44 1   
    33    15    16 1   
    34    15    45 1   
    35    15    46 1   
    36    16    17 1   
    37    16    18 1   
    38    16    20 1   
    39    19    27 1   
    40    19    47 1   
    41    19    48 1   
    42    20    21 ar  
    43    20    26 ar  
    44    21    22 1   
    45    21    23 ar  
    46    23    24 ar  
    47    23    49 1   
    48    24    25 ar  
    49    24    50 1   
    50    25    26 ar  
    51    25    51 1   
    52    26    52 1   
    53    27    28 1   
    54    27    53 1   
    55    28    29 1   
    56    28    54 1   
    57    29    55 1   
    58    29    56 1   
@<TRIPOS>SUBSTRUCTURE
     1 8BX         1 TEMP              0 ****  ****    0 ROOT
