@<TRIPOS>MOLECULE
molecule
   44    46     1     0     0
SMALL
bcc


@<TRIPOS>ATOM
      1 C7           0.0000     0.0000     0.0000 ca         1 8BY       0.028000
      2 C6           1.4010     0.0000     0.0000 ca         1 8BY      -0.300000
      3 C9          -2.1130     0.0110     1.2210 ca         1 8BY      -0.101000
      4 C13         -0.0170    -0.0020    -2.5120 cp         1 8BY      -0.069000
      5 C21          0.0080     0.0060     2.4380 ca         1 8BY      -0.034000
      6 C8          -0.7060     0.0050     1.2300 ca         1 8BY      -0.059000
      7 C18          0.9960     0.9280    -2.7540 ca         1 8BY      -0.126000
      8 C16          1.3050     0.0040    -4.9440 ca         1 8BY      -0.026000
      9 C19          1.9900     0.0050    -6.2020 cg         1 8BY       0.213800
     10 C1           3.0480    -1.4400     0.6700 c3         1 8BY      -0.181600
     11 C2           4.0820    -0.1240    -0.0970 c3         1 8BY       0.082100
     12 C3           5.4790    -0.7220     0.0920 c3         1 8BY      -0.181600
     13 C5           2.0850     0.0000     1.1820 ca         1 8BY       0.281100
     14 C10         -2.7880     0.0120     0.0390 ca         1 8BY      -0.104000
     15 C11         -2.1120     0.0000    -1.1760 ca         1 8BY      -0.063000
     16 C12         -0.7290    -0.0000    -1.2150 cp         1 8BY      -0.086000
     17 C14         -0.3650    -0.9290    -3.4970 ca         1 8BY      -0.126000
     18 C15          0.2900    -0.9270    -4.7030 ca         1 8BY      -0.083500
     19 C17          1.6520     0.9310    -3.9580 ca         1 8BY      -0.083500
     20 N20          2.5190     0.0160    -7.2080 n1         1 8BY      -0.316800
     21 C22          1.3930    -0.0000     2.4120 ca         1 8BY      -0.321600
     22 C23          2.1500     0.0010     3.6790 c          1 8BY       0.547700
     23 O24          3.3670    -0.0030     3.6610 o          1 8BY      -0.447100
     24 N25          1.4940     0.0080     4.8560 nz         1 8BY      -0.691400
     25 HC6          1.5970     0.0650    -1.0630 ha         1 8BY       0.214000
     26 HC9         -2.7100     0.0930     2.1210 ha         1 8BY       0.141000
     27 HC21        -0.3210     0.0080     3.4700 ha         1 8BY       0.087000
     28 HC18         0.8190     1.5070    -1.8550 ha         1 8BY       0.157000
     29 HC1B         2.0780    -1.0440     0.3930 hc         1 8BY       0.095200
     30 HC1A         3.6640    -2.3300     0.6810 hc         1 8BY       0.095200
     31 HC1C         3.0590    -0.9880     1.6550 hc         1 8BY       0.095200
     32 HC2          3.6110    -0.1060    -1.0720 h1         1 8BY       0.163700
     33 HC3C         6.3060    -0.4590    -0.5550 hc         1 8BY       0.095200
     34 HC3B         5.9910    -0.3150     0.9560 hc         1 8BY       0.095200
     35 HC3A         5.7750    -1.7130     0.4140 hc         1 8BY       0.095200
     36 HC10        -3.8640     0.1300    -0.0050 ha         1 8BY       0.154000
     37 HC11        -2.4080     0.1680    -2.2040 ha         1 8BY       0.164000
     38 HC14        -1.0580    -1.7410    -3.3140 ha         1 8BY       0.157000
     39 HC15         0.1230    -1.0600    -5.7650 ha         1 8BY       0.166000
     40 HC17         2.3610     1.7200    -4.1790 ha         1 8BY       0.166000
     41 H25B         0.9860     0.8410     5.0810 hn         1 8BY       0.446800
     42 H25A         0.5220    -0.2310     4.8500 hn         1 8BY       0.446800
     43 O4           3.4410    -0.0000     1.1740 os         1 8BY      -0.232900
     44 H253         1.6200    -0.1010     5.8430 hn         1 8BY       0.446800
@<TRIPOS>BOND
     1    23    22 2   
     2    24    22 1   
     3    22    21 1   
     4    21     5 ar  
     5    21    13 ar  
     6     5     6 ar  
     7    43    13 1   
     8    43    11 1   
     9    13     2 ar  
    10     6     3 ar  
    11     6     1 ar  
    12     3    14 ar  
    13    10    11 1   
    14    11    12 1   
    15     2     1 ar  
    16     1    16 ar  
    17    14    15 ar  
    18    16    15 ar  
    19    16     4 1   
    20     4    17 ar  
    21     4     7 ar  
    22    17    18 ar  
    23     7    19 ar  
    24    18     8 ar  
    25    19     8 ar  
    26     8     9 1   
    27     9    20 3   
    28     2    25 1   
    29     3    26 1   
    30     5    27 1   
    31     7    28 1   
    32    10    29 1   
    33    10    30 1   
    34    10    31 1   
    35    11    32 1   
    36    12    33 1   
    37    12    34 1   
    38    12    35 1   
    39    14    36 1   
    40    15    37 1   
    41    17    38 1   
    42    18    39 1   
    43    19    40 1   
    44    24    41 1   
    45    24    42 1   
    46    44    24 1   
@<TRIPOS>SUBSTRUCTURE
     1 8BY         1 TEMP              0 ****  ****    0 ROOT
