@<TRIPOS>MOLECULE
molecule
   48    50     1     0     0
SMALL
bcc


@<TRIPOS>ATOM
      1 C7           0.0000     0.0000     0.0000 ca         1 8C1      -0.098300
      2 C6           1.4020     0.0000     0.0000 ca         1 8C1      -0.173000
      3 C9          -2.1100    -0.0000    -1.1380 ca         1 8C1      -0.333300
      4 C13          0.0050    -0.0110     2.4340 ca         1 8C1      -0.119300
      5 C20         -0.0680    -0.8210    -4.7010 c3         1 8C1      -0.077400
      6 C21         -0.9280    -0.9230    -5.9640 c3         1 8C1      -0.075400
      7 C8          -0.7300    -0.0000    -1.2120 ca         1 8C1       0.185100
      8 C19         -0.9000    -0.2000    -3.5760 c3         1 8C1       0.139100
      9 C2           4.0850    -0.1100    -0.0940 c3         1 8C1       0.120100
     10 C3           4.1940     1.2760    -0.7330 c3         1 8C1      -0.102600
     11 C5           2.0830     0.0000     1.1830 ca         1 8C1       0.186100
     12 C10         -2.7350     0.0000     0.1060 ca         1 8C1       0.490200
     13 N11         -2.0490    -0.0060     1.2230 nb         1 8C1      -0.714000
     14 C12         -0.7100    -0.0060     1.2260 ca         1 8C1       0.413600
     15 C14          1.3900     0.0000     2.4100 ca         1 8C1      -0.206600
     16 C15          2.1450    -0.0050     3.6790 c          1 8C1       0.498700
     17 O16          3.3600     0.0060     3.6630 o          1 8C1      -0.391100
     18 N17          1.4860    -0.0220     4.8550 nz         1 8C1      -0.680400
     19 O18         -0.0950    -0.0000    -2.4100 os         1 8C1      -0.319900
     20 C22         -1.4380     0.4700    -6.3420 c3         1 8C1       0.151800
     21 N23         -2.2280     1.0210    -5.2340 n7         1 8C1      -0.818200
     22 C24         -1.4110     1.1720    -4.0240 c3         1 8C1       0.130800
     23 HC6          1.9430    -0.0550    -0.9370 ha         1 8C1       0.181000
     24 HC9         -2.7030     0.0050    -2.0450 ha         1 8C1       0.174000
     25 HC13        -0.5240    -0.0110     3.3800 ha         1 8C1       0.129000
     26 H21B        -0.3310    -1.3210    -6.7760 hc         1 8C1       0.061700
     27 H21A        -1.7710    -1.5770    -5.7740 hc         1 8C1       0.061700
     28 HC19        -1.7250    -0.8590    -3.3330 h1         1 8C1       0.069700
     29 HC1B         5.4890    -1.6320     0.6410 hc         1 8C1       0.058533
     30 HC1A         5.4830    -0.8340    -0.9840 hc         1 8C1       0.058533
     31 HC1C         6.2130     0.0280     0.4300 hc         1 8C1       0.058533
     32 HC2          3.5030    -0.7600    -0.7370 h1         1 8C1       0.051700
     33 HC3A         3.8100     1.2380    -1.7450 hc         1 8C1       0.058533
     34 HC3C         5.2330     1.5840    -0.7520 hc         1 8C1       0.058533
     35 HC3B         3.6170     1.9870    -0.1540 hc         1 8C1       0.058533
     36 HC10        -3.8170     0.0000     0.1520 h4         1 8C1       0.044100
     37 H17B         0.9080     0.7920     4.9260 hn         1 8C1       0.475467
     38 H17A         0.9150    -0.8420     4.9050 hn         1 8C1       0.475467
     39 H22B        -2.0600     0.3970    -7.2260 h1         1 8C1       0.043700
     40 H22A        -0.5950     1.1200    -6.5400 h1         1 8C1       0.043700
     41 HN23        -2.6000     1.9110    -5.4990 hn         1 8C1       0.369800
     42 H24B        -2.0130     1.6070    -3.2350 h1         1 8C1       0.044700
     43 H24A        -0.5670     1.8180    -4.2380 h1         1 8C1       0.044700
     44 O4           3.4410     0.0000     1.1770 os         1 8C1      -0.313900
     45 H20B         0.7930    -0.1950    -4.9010 hc         1 8C1       0.056200
     46 C1           5.4850    -0.6980     0.0910 c3         1 8C1      -0.102600
     47 H173         2.1460    -0.0300     5.6070 hn         1 8C1       0.475467
     48 H20A         0.2580    -1.8100    -4.4050 hc         1 8C1       0.056200
@<TRIPOS>BOND
     1    12    13 ar
     2    12     3 ar
     3    13    14 ar
     4     3     7 ar
     5     5     8 1
     6     5     6 1
     7     7    19 1
     8     7     1 ar
     9     8    19 1
    10     8    22 1
    11    14     4 ar
    12    14     1 ar
    13     4    15 ar
    14     1     2 ar
    15    22    21 1
    16    17    16 2
    17     6    20 1
    18    15    16 1
    19    15    11 ar
    20     2    11 ar
    21    16    18 1
    22    11    44 1
    23    20    21 1
    24    44     9 1
    25    10     9 1
    26     9    46 1
    27     2    23 1
    28     3    24 1
    29     4    25 1
    30     5    45 1
    31     5    48 1
    32     6    26 1
    33     6    27 1
    34     8    28 1
    35    46    29 1
    36    46    30 1
    37    46    31 1
    38     9    32 1
    39    10    33 1
    40    10    34 1
    41    10    35 1
    42    12    36 1
    43    18    37 1
    44    18    38 1
    45    20    39 1
    46    20    40 1
    47    21    41 1
    48    22    42 1
    49    22    43 1
    50    47    18 1
@<TRIPOS>SUBSTRUCTURE
     1 8C1         1 TEMP              0 ****  ****    0 ROOT
