@<TRIPOS>MOLECULE
8C1
   48    50     1     0     0
SMALL
bcc


@<TRIPOS>ATOM
      1 C7           0.0000     0.0000     0.0000 ca         1 8C1      -0.090300
      2 C6           1.4020     0.0000     0.0000 ca         1 8C1      -0.166000
      3 C9          -2.1100    -0.0000    -1.1380 ca         1 8C1      -0.317300
      4 C13          0.0050    -0.0110     2.4340 ca         1 8C1      -0.088300
      5 C20         -0.0680    -0.8210    -4.7010 c3         1 8C1      -0.027400
      6 C21         -0.9280    -0.9230    -5.9640 c3         1 8C1      -0.017400
      7 C8          -0.7300    -0.0000    -1.2120 ca         1 8C1       0.194100
      8 C19         -0.9000    -0.2000    -3.5760 c3         1 8C1       0.167100
      9 C2           4.0850    -0.1100    -0.0940 c3         1 8C1       0.148100
     10 C3           4.1940     1.2760    -0.7330 c3         1 8C1      -0.016100
     11 C5           2.0830     0.0000     1.1830 ca         1 8C1       0.208100
     12 C10         -2.7350     0.0000     0.1060 ca         1 8C1       0.485200
     13 N11         -2.0490    -0.0060     1.2230 nb         1 8C1      -0.613000
     14 C12         -0.7100    -0.0060     1.2260 ca         1 8C1       0.370600
     15 C14          1.3900     0.0000     2.4100 ca         1 8C1      -0.235600
     16 C15          2.1450    -0.0050     3.6790 c          1 8C1       0.346700
     17 O16          3.3600     0.0060     3.6630 o          1 8C1      -0.409100
     18 N17          1.4860    -0.0220     4.8550 nz         1 8C1       0.196600
     19 O18         -0.0950    -0.0000    -2.4100 os         1 8C1      -0.293900
     20 C22         -1.4380     0.4700    -6.3420 c3         1 8C1       0.141800
     21 N23         -2.2280     1.0210    -5.2340 n7         1 8C1      -0.573200
     22 C24         -1.4110     1.1720    -4.0240 c3         1 8C1       0.107800
     23 HC6          1.9430    -0.0550    -0.9370 ha         1 8C1       0.161000
     24 HC9         -2.7030     0.0050    -2.0450 ha         1 8C1       0.157000
     25 HC13        -0.5240    -0.0110     3.3800 ha         1 8C1       0.093000
     26 H21B        -0.3310    -1.3210    -6.7760 hc         1 8C1       0.028200
     27 H21A        -1.7710    -1.5770    -5.7740 hc         1 8C1       0.028200
     28 HC19        -1.7250    -0.8590    -3.3330 h1         1 8C1       0.038700
     29 HC1B         5.4890    -1.6320     0.6410 hc         1 8C1       0.024200
     30 HC1A         5.4830    -0.8340    -0.9840 hc         1 8C1       0.024200
     31 HC1C         6.2130     0.0280     0.4300 hc         1 8C1       0.024200
     32 HC2          3.5030    -0.7600    -0.7370 h1         1 8C1       0.024700
     33 HC3A         3.8100     1.2380    -1.7450 hc         1 8C1       0.024200
     34 HC3C         5.2330     1.5840    -0.7520 hc         1 8C1       0.024200
     35 HC3B         3.6170     1.9870    -0.1540 hc         1 8C1       0.024200
     36 HC10        -3.8170     0.0000     0.1520 h4         1 8C1      -0.007900
     37 H17B         0.9080     0.7920     4.9260 hn         1 8C1       0.245467
     38 H17A         0.9150    -0.8420     4.9050 hn         1 8C1       0.245467
     39 H22B        -2.0600     0.3970    -7.2260 h1         1 8C1       0.015200
     40 H22A        -0.5950     1.1200    -6.5400 h1         1 8C1       0.015200
     41 HN23        -2.6000     1.9110    -5.4990 hn         1 8C1       0.263800
     42 H24B        -2.0130     1.6070    -3.2350 h1         1 8C1       0.018700
     43 H24A        -0.5670     1.8180    -4.2380 h1         1 8C1       0.018700
     44 O4           3.4410     0.0000     1.1770 os         1 8C1      -0.286900
     45 H20B         0.7930    -0.1950    -4.9010 hc         1 8C1       0.024700
     46 C1           5.4850    -0.6980     0.0910 c3         1 8C1      -0.016100
     47 H173         2.1460    -0.0300     5.6070 hn         1 8C1       0.245467
     48 H20A         0.2580    -1.8100    -4.4050 hc         1 8C1       0.024700
@<TRIPOS>BOND
     1     1     2 ar  
     2     1     7 ar  
     3     1    14 ar  
     4     2    11 ar  
     5     2    23 1   
     6     3     7 ar  
     7     3    12 ar  
     8     3    24 1   
     9     4    14 ar  
    10     4    15 ar  
    11     4    25 1   
    12     5     6 1   
    13     5     8 1   
    14     5    45 1   
    15     5    48 1   
    16     6    20 1   
    17     6    26 1   
    18     6    27 1   
    19     7    19 1   
    20     8    19 1   
    21     8    22 1   
    22     8    28 1   
    23     9    10 1   
    24     9    32 1   
    25     9    44 1   
    26     9    46 1   
    27    10    33 1   
    28    10    34 1   
    29    10    35 1   
    30    11    15 ar  
    31    11    44 1   
    32    12    13 ar  
    33    12    36 1   
    34    13    14 ar  
    35    15    16 1   
    36    16    17 2   
    37    16    18 1   
    38    18    37 1   
    39    18    38 1   
    40    18    47 1   
    41    20    21 1   
    42    20    39 1   
    43    20    40 1   
    44    21    22 1   
    45    21    41 1   
    46    22    42 1   
    47    22    43 1   
    48    29    46 1   
    49    30    46 1   
    50    31    46 1   
@<TRIPOS>SUBSTRUCTURE
     1 8C1         1 TEMP              0 ****  ****    0 ROOT
