@<TRIPOS>MOLECULE
8C3
   51    53     1     0     0
SMALL
bcc


@<TRIPOS>ATOM
      1 C1           0.0000     0.0000     0.0000 cc         1 8C3      -0.351900
      2 C2           1.4660     0.0000     0.0000 c          1 8C3       0.656100
      3 C3           0.0720    -0.0000     2.3890 cc         1 8C3       0.257800
      4 O1           2.0940     0.0010    -1.0450 o          1 8C3      -0.655500
      5 O2           3.2800     2.3430     1.2340 o          1 8C3      -0.640100
      6 C11         -0.6540     0.0000     3.7100 c3         1 8C3      -0.014400
      7 C12          7.4090     3.0470     1.3750 c3         1 8C3      -0.050400
      8 C13          5.8800     3.0470     1.3240 c3         1 8C3       0.050000
      9 C14          7.9190     4.4900     1.3930 c3         1 8C3       0.153800
     10 C15          9.9300     5.8040     1.0920 c3         1 8C3       0.141800
     11 C16          9.8560     4.0750     2.7850 c3         1 8C3       0.141800
     12 C17          9.8480     5.9880    -0.4250 c3         1 8C3      -0.000600
     13 C18         11.3690     3.8460     2.7440 c3         1 8C3      -0.000600
     14 N1          -0.6590    -0.0000     1.2190 na         1 8C3       0.467800
     15 C4          -0.9380    -0.0050    -1.0000 cd         1 8C3      -0.016000
     16 N2           2.1000     0.0000     1.1940 n          1 8C3       0.139200
     17 C5          -2.0250    -0.0000     0.9800 cc         1 8C3      -0.253300
     18 N3           1.3610    -0.0000     2.3810 n2         1 8C3      -0.527300
     19 C6          -2.2070    -0.0020    -0.3910 cd         1 8C3       0.007900
     20 C7           3.5640    -0.0000     1.2450 c3         1 8C3      -0.004000
     21 C8          -3.2330    -0.0010     1.6890 cc         1 8C3      -0.094000
     22 S1          -3.9280    -0.0030    -0.7580 ss         1 8C3      -0.246800
     23 C9           4.0670     1.4200     1.2610 c          1 8C3       0.556100
     24 C10         -4.3340    -0.0000     0.9500 cd         1 8C3       0.023900
     25 N4           5.3910     1.6660     1.3060 ns         1 8C3      -0.189900
     26 N5           9.3870     4.4890     1.4560 n3         1 8C3      -0.540600
     27 H1          -1.2740    -0.8860     3.7810 hc         1 8C3       0.025700
     28 H2          -1.2770     0.8830     3.7790 hc         1 8C3       0.025700
     29 H3           0.0670     0.0020     4.5180 hc         1 8C3       0.025700
     30 H4           7.8000     2.5370     0.5030 hc         1 8C3       0.024700
     31 H5           7.7400     2.5360     2.2710 hc         1 8C3       0.024700
     32 H6           5.5500     3.5590     0.4280 h1         1 8C3       0.028200
     33 H7           5.4900     3.5570     2.1960 h1         1 8C3       0.028200
     34 H8           7.5210     5.0030     2.2600 h1         1 8C3       0.015700
     35 H9           7.5960     4.9980     0.4930 h1         1 8C3       0.015700
     36 H10         10.9650     5.8490     1.4060 h1         1 8C3       0.010450
     37 H11          9.3700     6.5920     1.5810 h1         1 8C3       0.010450
     38 H12          9.3580     3.1490     3.0450 h1         1 8C3       0.010450
     39 H13          9.6260     4.8290     3.5280 h1         1 8C3       0.010450
     40 H14          8.8900     6.4220    -0.6850 hc         1 8C3       0.007200
     41 H15         10.6430     6.6460    -0.7520 hc         1 8C3       0.007200
     42 H16          9.9520     5.0250    -0.9110 hc         1 8C3       0.007200
     43 H17         11.8810     4.7860     2.9110 hc         1 8C3       0.007200
     44 H18         11.6480     3.1400     3.5160 hc         1 8C3       0.007200
     45 H19         11.6480     3.4500     1.7750 hc         1 8C3       0.007200
     46 H20         -0.7400    -0.1330    -2.0580 ha         1 8C3       0.144000
     47 H21          3.8950    -0.5110     2.1410 h1         1 8C3       0.051700
     48 H22          3.9550    -0.5110     0.3730 h1         1 8C3       0.051700
     49 H23         -3.2660     0.0010     2.7720 ha         1 8C3       0.118000
     50 H24         -5.3430     0.0020     1.3450 h4         1 8C3       0.150000
     51 H25          6.0400     0.9050     1.3500 hn         1 8C3       0.172500
@<TRIPOS>BOND
     1     1     2 1   
     2     1    14 1   
     3     1    15 2   
     4     2     4 2   
     5     2    16 1   
     6     3     6 1   
     7     3    14 1   
     8     3    18 2   
     9     5    23 2   
    10     6    27 1   
    11     6    28 1   
    12     6    29 1   
    13     7     8 1   
    14     7     9 1   
    15     7    30 1   
    16     7    31 1   
    17     8    25 1   
    18     8    32 1   
    19     8    33 1   
    20     9    26 1   
    21     9    34 1   
    22     9    35 1   
    23    10    12 1   
    24    10    26 1   
    25    10    36 1   
    26    10    37 1   
    27    11    13 1   
    28    11    26 1   
    29    11    38 1   
    30    11    39 1   
    31    12    40 1   
    32    12    41 1   
    33    12    42 1   
    34    13    43 1   
    35    13    44 1   
    36    13    45 1   
    37    14    17 1   
    38    15    19 1   
    39    15    46 1   
    40    16    18 1   
    41    16    20 1   
    42    17    19 2   
    43    17    21 1   
    44    19    22 1   
    45    20    23 1   
    46    20    47 1   
    47    20    48 1   
    48    21    24 2   
    49    21    49 1   
    50    22    24 1   
    51    23    25 1   
    52    24    50 1   
    53    25    51 1   
@<TRIPOS>SUBSTRUCTURE
     1 8C3         1 TEMP              0 ****  ****    0 ROOT
