@<TRIPOS>MOLECULE
molecule
   70    74     1     0     0
SMALL
bcc


@<TRIPOS>ATOM
      1 C01          0.0000     0.0000     0.0000 c3         1 8C5       0.099700
      2 O02          1.4300     0.0000     0.0000 os         1 8C5      -0.190900
      3 N03          2.0060     0.0000     1.2930 ns         1 8C5      -0.466400
      4 C04          3.3460    -0.0010     1.4340 c          1 8C5       0.711300
      5 O05          4.0600    -0.0810     0.4530 o          1 8C5      -0.620100
      6 C06          3.9460     0.0980     2.7740 cc         1 8C5      -0.357400
      7 C07          5.3100     0.2060     2.9240 cd         1 8C5       0.188000
      8 N08          5.8940     0.2970     4.1300 na         1 8C5      -0.596100
      9 C09          5.1820     0.2890     5.3010 ca         1 8C5       0.753200
     10 N10          5.7890     0.3820     6.4790 nb         1 8C5      -0.856000
     11 C11          5.0830     0.3720     7.6000 ca         1 8C5       0.986900
     12 N12          3.7590     0.2730     7.6090 nb         1 8C5      -0.807000
     13 C13          3.0750     0.1770     6.4830 ca         1 8C5       0.578200
     14 C14          3.7760     0.1830     5.2770 ca         1 8C5      -0.499200
     15 C15          3.0950     0.0870     3.9770 c          1 8C5       0.617900
     16 O16          1.8830    -0.0030     3.9000 o          1 8C5      -0.592100
     17 N17          5.7500     0.4700     8.8050 nu         1 8C5      -0.745300
     18 C18          5.0280     0.5790     9.9970 ca         1 8C5       0.144600
     19 C19          5.4670    -0.0750    11.1410 ca         1 8C5      -0.134000
     20 C20          4.7520     0.0360    12.3170 ca         1 8C5      -0.109500
     21 C21          3.5980     0.7970    12.3570 ca         1 8C5      -0.095300
     22 C22          3.1570     1.4510    11.2200 ca         1 8C5      -0.109500
     23 C23          3.8720     1.3490    10.0430 ca         1 8C5      -0.134000
     24 C24          2.8200     0.9160    13.6420 c3         1 8C5      -0.034100
     25 C25          3.3340     2.1150    14.4410 c3         1 8C5       0.161800
     26 N26          2.5740     2.2310    15.6930 n3         1 8C5      -0.719600
     27 C27          3.1910     3.2210    16.5960 c3         1 8C5       0.151800
     28 C28          2.1140     4.2750    16.9220 c3         1 8C5      -0.097900
     29 C29          0.7890     3.5190    16.6450 c3         1 8C5      -0.097900
     30 C30          1.1790     2.6390    15.4300 c3         1 8C5       0.151800
     31 C31          7.3540     0.4090     4.1970 c3         1 8C5       0.210500
     32 C32          7.9900    -0.8210     3.5490 c3         1 8C5      -0.096900
     33 C33          9.5140    -0.7050     3.6190 c3         1 8C5      -0.076400
     34 C34          9.9640     0.5530     2.8730 c3         1 8C5      -0.086400
     35 C35          9.3270     1.7850     3.5200 c3         1 8C5      -0.076400
     36 C36          7.8030     1.6680     3.4520 c3         1 8C5      -0.096900
     37 H24          2.9460     0.0120    14.2250 hc         1 8C5       0.057200
     38 H24A         1.7700     1.0560    13.4160 hc         1 8C5       0.057200
     39 H30          1.1220     3.2160    14.5150 h1         1 8C5       0.043700
     40 H30A         0.5360     1.7690    15.3750 h1         1 8C5       0.043700
     41 H35          9.6370     1.8470     4.5570 hc         1 8C5       0.048700
     42 H36          7.3540     2.5390     3.9130 hc         1 8C5       0.054450
     43 H01         -0.3610    -0.8890     0.5020 h1         1 8C5       0.042700
     44 H01A        -0.3610     0.8800     0.5190 h1         1 8C5       0.042700
     45 H01B        -0.3610     0.0100    -1.0210 h1         1 8C5       0.042700
     46 HN03         1.4180    -0.0270     2.1030 hn         1 8C5       0.359500
     47 H07          5.9340     0.2190     2.0390 h4         1 8C5       0.193000
     48 H13          1.9940     0.0970     6.4950 h4         1 8C5       0.058100
     49 HN17         6.7510     0.4870     8.8230 hn         1 8C5       0.467800
     50 H19          6.3710    -0.6710    11.1110 ha         1 8C5       0.141500
     51 H20          5.0950    -0.4740    13.2090 ha         1 8C5       0.136000
     52 H22          2.2550     2.0490    11.2550 ha         1 8C5       0.136000
     53 H23          3.5260     1.8610     9.1530 ha         1 8C5       0.141500
     54 H25          4.3840     1.9740    14.6680 h1         1 8C5       0.036200
     55 H25A         3.2090     3.0190    13.8570 h1         1 8C5       0.036200
     56 H27          3.5180     2.7340    17.5070 h1         1 8C5       0.043700
     57 H27A         4.0310     3.6940    16.1030 h1         1 8C5       0.043700
     58 H28          2.2080     5.1320    16.2670 hc         1 8C5       0.050200
     59 H28A         2.1730     4.5710    17.9630 hc         1 8C5       0.050200
     60 H29          0.5100     2.9040    17.4920 hc         1 8C5       0.050200
     61 H29A        -0.0020     4.2110    16.3810 hc         1 8C5       0.050200
     62 H31          7.6680     0.4730     5.2320 h1         1 8C5       0.108700
     63 H32          7.6810    -0.8820     2.5120 hc         1 8C5       0.054450
     64 H32A         7.6730    -1.7110     4.0790 hc         1 8C5       0.054450
     65 H33          9.8220    -0.6380     4.6550 hc         1 8C5       0.048700
     66 H33A         9.9630    -1.5770     3.1580 hc         1 8C5       0.048700
     67 H34          9.6510     0.4890     1.8370 hc         1 8C5       0.048200
     68 H34A        11.0430     0.6360     2.9250 hc         1 8C5       0.048200
     69 H35A         9.6440     2.6740     2.9900 hc         1 8C5       0.048700
     70 H36A         7.4940     1.6020     2.4150 hc         1 8C5       0.054450
@<TRIPOS>BOND
     1     1     2 1   
     2     1    43 1   
     3     1    44 1   
     4     1    45 1   
     5     2     3 1   
     6     3     4 1   
     7     3    46 1   
     8     4     5 2   
     9     4     6 1   
    10     6     7 2   
    11     6    15 1   
    12     7     8 1   
    13     7    47 1   
    14     8     9 1   
    15     8    31 1   
    16     9    10 ar  
    17     9    14 ar  
    18    10    11 ar  
    19    11    12 ar  
    20    11    17 1   
    21    12    13 ar  
    22    13    14 ar  
    23    13    48 1   
    24    14    15 1   
    25    15    16 2   
    26    17    18 1   
    27    17    49 1   
    28    18    19 ar  
    29    18    23 ar  
    30    19    20 ar  
    31    19    50 1   
    32    20    21 ar  
    33    20    51 1   
    34    21    22 ar  
    35    21    24 1   
    36    22    23 ar  
    37    22    52 1   
    38    23    53 1   
    39    24    25 1   
    40    24    37 1   
    41    24    38 1   
    42    25    26 1   
    43    25    54 1   
    44    25    55 1   
    45    26    27 1   
    46    26    30 1   
    47    27    28 1   
    48    27    56 1   
    49    27    57 1   
    50    28    29 1   
    51    28    58 1   
    52    28    59 1   
    53    29    30 1   
    54    29    60 1   
    55    29    61 1   
    56    30    39 1   
    57    30    40 1   
    58    31    32 1   
    59    31    36 1   
    60    31    62 1   
    61    32    33 1   
    62    32    63 1   
    63    32    64 1   
    64    33    34 1   
    65    33    65 1   
    66    33    66 1   
    67    34    35 1   
    68    34    67 1   
    69    34    68 1   
    70    35    36 1   
    71    35    41 1   
    72    35    69 1   
    73    36    42 1   
    74    36    70 1   
@<TRIPOS>SUBSTRUCTURE
     1 8C5         1 TEMP              0 ****  ****    0 ROOT
