@<TRIPOS>MOLECULE
molecule
   41    43     1     0     0
SMALL
bcc


@<TRIPOS>ATOM
      1 PB           0.0000     0.0000     0.0000 p5         1 8C6       1.071700
      2 O1B          1.4800     0.0000     0.0000 o          1 8C6      -0.850167
      3 O2B         -0.5360     0.0000     1.5180 o          1 8C6      -0.850167
      4 O3B         -0.5370     1.3140    -0.7590 o          1 8C6      -0.850167
      5 PA           0.0020    -2.9770     0.0000 p5         1 8C6       1.141600
      6 O1A          1.4820    -2.9770     0.0010 o          1 8C6      -0.794500
      7 O2A         -0.5350    -2.9770     1.5180 o          1 8C6      -0.794500
      8 O5'         -0.5340    -4.2920    -0.7590 os         1 8C6      -0.579200
      9 C5'         -0.1450    -5.6170    -0.3890 c3         1 8C6       0.228400
     10 C4'         -0.8340    -6.6260    -1.3100 c3         1 8C6       0.117100
     11 O4'         -0.3380    -6.4810    -2.6530 os         1 8C6      -0.370600
     12 C3'         -0.5060    -8.0610    -0.8540 c3         1 8C6       0.080100
     13 O3'         -1.7020    -8.7630    -0.5130 oh         1 8C6      -0.588800
     14 C2'          0.1690    -8.7070    -2.0890 c3         1 8C6       0.082100
     15 C1'         -0.3260    -7.7980    -3.2420 c3         1 8C6       0.253800
     16 N9           0.6010    -7.8480    -4.3740 na         1 8C6      -0.250000
     17 C8           1.6210    -6.9770    -4.6210 cc         1 8C6       0.450700
     18 N7           2.2440    -7.3200    -5.7100 nd         1 8C6      -0.613100
     19 C5           1.6660    -8.4290    -6.2310 ca         1 8C6      -0.153200
     20 C6           1.9030    -9.2270    -7.3630 ca         1 8C6       0.690200
     21 N6           2.9330    -8.9290    -8.2370 nv         1 8C6      -1.066500
     22 N1           1.1140   -10.2760    -7.5730 nb         1 8C6      -0.790000
     23 C2           0.1290   -10.5680    -6.7450 ca         1 8C6       0.635900
     24 N3          -0.1290    -9.8490    -5.6730 nb         1 8C6      -0.758000
     25 C4           0.6090    -8.7850    -5.3770 ca         1 8C6       0.446800
     26 O           -0.2800   -10.0510    -2.2690 oh         1 8C6      -0.574800
     27 C3A         -0.6060    -1.4890    -0.8590 c3         1 8C6      -0.186700
     28 Cl2         -0.0050    -1.4890    -2.5590 cl         1 8C6      -0.284400
     29 H4          -0.4370    -5.8060     0.6370 h1         1 8C6       0.029200
     30 H5           0.9300    -5.7170    -0.4830 h1         1 8C6       0.029200
     31 H6          -1.9060    -6.4730    -1.2960 h1         1 8C6       0.079700
     32 H7           0.1810    -8.0420    -0.0160 h1         1 8C6       0.052700
     33 H8          -1.6700    -9.0160     0.3950 ho         1 8C6       0.391000
     34 H9           1.2480    -8.6620    -2.0020 h1         1 8C6       0.055700
     35 H10         -1.3250    -8.0850    -3.5480 h2         1 8C6       0.094700
     36 H11          1.8750    -6.1250    -4.0020 h5         1 8C6       0.117800
     37 H12          2.7660    -8.3340    -9.0240 hn         1 8C6       0.421800
     38 H13          3.8400    -9.3290    -8.0960 hn         1 8C6       0.421800
     39 H14         -0.4900   -11.4320    -6.9540 h5         1 8C6       0.032100
     40 H15          0.3540   -10.6460    -1.9020 ho         1 8C6       0.385000
     41 H16         -1.6890    -1.4900    -0.8590 h1         1 8C6       0.047700
@<TRIPOS>BOND
     1    13    12 1
     2    26    14 1
     3    12    14 1
     4    12    10 1
     5    14    15 1
     6     2     1 1
     7     7     5 1
     8    10     9 1
     9    10    11 1
    10     9     8 1
    11    15    11 1
    12    15    16 1
    13     3     1 1
    14     1    27 1
    15     1     4 1
    16     5     8 1
    17     5    27 1
    18     5     6 1
    19    27    28 1
    20    16    25 1
    21    16    17 1
    22    24    25 ar
    23    24    23 ar
    24    25    19 ar
    25    17    18 2
    26    23    22 ar
    27    19    18 1
    28    19    20 ar
    29    22    20 ar
    30    20    21 1
    31     9    29 1
    32     9    30 1
    33    10    31 1
    34    12    32 1
    35    13    33 1
    36    14    34 1
    37    15    35 1
    38    17    36 1
    39    21    37 1
    40    21    38 1
    41    23    39 1
    42    26    40 1
    43    27    41 1
@<TRIPOS>SUBSTRUCTURE
     1 8C6         1 TEMP              0 ****  ****    0 ROOT
