@<TRIPOS>MOLECULE
molecule
   89    92     1     0     0
SMALL
bcc


@<TRIPOS>ATOM
      1 O3           0.0000     0.0000     0.0000 o          1 8C9      -0.529100
      2 C22          1.2120     0.0000     0.0000 c          1 8C9       0.577700
      3 C23          1.9470     0.0000     1.2720 ca         1 8C9      -0.190600
      4 C28          3.3470     0.0060     1.2750 ca         1 8C9      -0.066500
      5 C27          4.0270     0.0070     2.4660 ca         1 8C9      -0.169500
      6 C26          3.3300     0.0010     3.6680 ca         1 8C9       0.134100
      7 O4           4.0070     0.0020     4.8440 oh         1 8C9      -0.522100
      8 C25          1.9390    -0.0040     3.6710 ca         1 8C9      -0.169500
      9 C24          1.2480     0.0000     2.4860 ca         1 8C9      -0.066500
     10 C21          1.9660    -0.0060    -1.3050 c3         1 8C9      -0.180400
     11 C20          0.9720    -0.0130    -2.4680 c3         1 8C9      -0.072400
     12 C19          1.7330     0.1120    -3.7900 c3         1 8C9      -0.072700
     13 C31          0.7350     0.2160    -4.9450 c3         1 8C9      -0.078400
     14 C32         -0.0540     1.5220    -4.8210 c3         1 8C9      -0.086400
     15 C33         -1.1270     1.5740    -5.9100 c3         1 8C9      -0.083400
     16 C34         -1.9160     2.8790    -5.7850 c3         1 8C9      -0.092100
     17 C18          2.6150    -1.1230    -3.9880 c3         1 8C9      -0.070700
     18 C30          1.7340    -2.3700    -4.0800 c3         1 8C9      -0.095100
     19 C17          3.4210    -0.9710    -5.2790 c3         1 8C9      -0.055700
     20 C13          4.4100    -2.1180    -5.4230 c3         1 8C9      -0.061000
     21 C29          4.8910    -2.5470    -4.0350 c3         1 8C9      -0.090100
     22 C12          3.9770    -3.3460    -6.1900 c3         1 8C9      -0.065400
     23 C11          5.1110    -4.3800    -6.0860 c3         1 8C9      -0.079400
     24 C10          6.4220    -3.8420    -6.6550 c3         1 8C9      -0.043200
     25 C16          4.2930     0.3100    -5.2220 c3         1 8C9      -0.081400
     26 C15          5.7620    -0.1510    -5.4390 c3         1 8C9      -0.078400
     27 C14          5.5940    -1.4730    -6.1980 c3         1 8C9      -0.034500
     28 C9           6.7210    -2.4560    -6.1010 c2         1 8C9      -0.096400
     29 C8           7.8970    -2.1410    -5.5690 ce         1 8C9      -0.152000
     30 C7           8.9680    -3.1480    -5.4990 ce         1 8C9      -0.133000
     31 C5          10.1080    -2.8640    -4.8800 c2         1 8C9      -0.110400
     32 C6          11.2660    -3.8350    -4.9180 c3         1 8C9      -0.051200
     33 C1          12.5000    -3.1020    -5.4620 c3         1 8C9       0.194300
     34 O1          12.3230    -2.8330    -6.8550 oh         1 8C9      -0.603800
     35 C4          10.2720    -1.5620    -4.1300 c3         1 8C9      -0.051200
     36 C3          11.5080    -0.8350    -4.6760 c3         1 8C9       0.194300
     37 O2          11.8320     0.2660    -3.8250 oh         1 8C9      -0.603800
     38 C2          12.6620    -1.8030    -4.7070 c2         1 8C9      -0.151400
     39 C35         13.7870    -1.5230    -4.0970 c2         1 8C9      -0.191000
     40 H1           3.8920     0.0110     0.3380 ha         1 8C9       0.146500
     41 H2           5.1100     0.0120     2.4700 ha         1 8C9       0.144500
     42 H3           4.1220    -0.8850     5.1420 ho         1 8C9       0.425000
     43 H4           1.4000    -0.0060     4.6110 ha         1 8C9       0.144500
     44 H5           0.1650    -0.0040     2.4900 ha         1 8C9       0.146500
     45 H6           2.5890    -0.8910    -1.3570 hc         1 8C9       0.065700
     46 H7           2.5880     0.8780    -1.3660 hc         1 8C9       0.065700
     47 H8           0.4130    -0.9400    -2.4600 hc         1 8C9       0.059700
     48 H9           0.2890     0.8220    -2.3640 hc         1 8C9       0.059700
     49 H10          2.3540     1.0000    -3.7670 hc         1 8C9       0.052700
     50 H11          1.2700     0.2050    -5.8870 hc         1 8C9       0.045700
     51 H12          0.0510    -0.6240    -4.9080 hc         1 8C9       0.045700
     52 H13          0.6190     2.3630    -4.9360 hc         1 8C9       0.043700
     53 H14         -0.5260     1.5670    -3.8470 hc         1 8C9       0.043700
     54 H15         -1.8000     0.7330    -5.7950 hc         1 8C9       0.039200
     55 H16         -0.6550     1.5280    -6.8840 hc         1 8C9       0.039200
     56 H17         -2.7290     2.8800    -6.5000 hc         1 8C9       0.032700
     57 H18         -1.2590     3.7180    -5.9850 hc         1 8C9       0.032700
     58 H19         -2.3160     2.9650    -4.7820 hc         1 8C9       0.032700
     59 H20          3.2930    -1.2210    -3.1490 hc         1 8C9       0.057700
     60 H21          0.7600    -2.1560    -3.6580 hc         1 8C9       0.038033
     61 H22          2.1970    -3.1800    -3.5300 hc         1 8C9       0.038033
     62 H23          1.6220    -2.6560    -5.1190 hc         1 8C9       0.038033
     63 H24          2.7620    -0.9360    -6.1380 hc         1 8C9       0.058700
     64 H25          4.9330    -1.6820    -3.3840 hc         1 8C9       0.039367
     65 H26          5.8770    -2.9870    -4.1150 hc         1 8C9       0.039367
     66 H27          4.2030    -3.2750    -3.6240 hc         1 8C9       0.039367
     67 H28          3.8100    -3.0900    -7.2290 hc         1 8C9       0.045200
     68 H29          3.0720    -3.7500    -5.7540 hc         1 8C9       0.045200
     69 H30          4.8270    -5.2690    -6.6360 hc         1 8C9       0.042700
     70 H31          5.2580    -4.6360    -5.0440 hc         1 8C9       0.042700
     71 H32          7.2280    -4.5130    -6.3860 hc         1 8C9       0.050200
     72 H33          6.3440    -3.7840    -7.7340 hc         1 8C9       0.050200
     73 H34          4.1930     0.7840    -4.2540 hc         1 8C9       0.044200
     74 H35          3.9990     0.9930    -6.0100 hc         1 8C9       0.044200
     75 H36          6.3040     0.5690    -6.0410 hc         1 8C9       0.046700
     76 H37          6.2550    -0.3160    -4.4890 hc         1 8C9       0.046700
     77 H38          5.3230    -1.2940    -7.2310 hc         1 8C9       0.067700
     78 H39          8.0670    -1.1420    -5.1860 ha         1 8C9       0.134000
     79 H40          8.8640    -4.0820    -6.0370 ha         1 8C9       0.131000
     80 H41         11.0210    -4.6660    -5.5680 hc         1 8C9       0.057950
     81 H42         11.4700    -4.1960    -3.9170 hc         1 8C9       0.057950
     82 H43         13.3790    -3.7180    -5.3160 h1         1 8C9       0.046700
     83 H44         13.0090    -3.2540    -7.3460 ho         1 8C9       0.401500
     84 H45         10.4080    -1.7660    -3.0740 hc         1 8C9       0.057950
     85 H46          9.3940    -0.9450    -4.2770 hc         1 8C9       0.057950
     86 H47         11.3060    -0.4790    -5.6790 h1         1 8C9       0.046700
     87 H48         11.6030     1.0740    -4.2540 ho         1 8C9       0.401500
     88 H49         14.6100    -2.2260    -4.1290 ha         1 8C9       0.122000
     89 H50         13.8930    -0.5890    -3.5580 ha         1 8C9       0.122000
@<TRIPOS>BOND
     1    39    38 2
     2    34    33 1
     3    38    33 1
     4    38    36 1
     5    33    32 1
     6    36    35 1
     7    36    37 1
     8    35    31 1
     9    32    31 1
    10    31    30 2
    11    30    29 1
    12    21    20 1
    13    29    28 2
    14    28    24 1
    15    28    27 1
    16     1     2 2
    17    23    24 1
    18    23    22 1
    19    20    27 1
    20    20    22 1
    21    20    19 1
    22    18    17 1
    23     4     5 ar
    24     4     3 ar
    25    17    19 1
    26    17    12 1
    27    26    27 1
    28    26    25 1
    29     5     6 ar
    30    11    12 1
    31    11    10 1
    32     2     3 1
    33     2    10 1
    34    25    19 1
    35     3     9 ar
    36    12    13 1
    37     6     7 1
    38     6     8 ar
    39     9     8 ar
    40    13    14 1
    41    14    15 1
    42    15    16 1
    43     4    40 1
    44     5    41 1
    45     7    42 1
    46     8    43 1
    47     9    44 1
    48    10    45 1
    49    10    46 1
    50    11    47 1
    51    11    48 1
    52    12    49 1
    53    13    50 1
    54    13    51 1
    55    14    52 1
    56    14    53 1
    57    15    54 1
    58    15    55 1
    59    16    56 1
    60    16    57 1
    61    16    58 1
    62    17    59 1
    63    18    60 1
    64    18    61 1
    65    18    62 1
    66    19    63 1
    67    21    64 1
    68    21    65 1
    69    21    66 1
    70    22    67 1
    71    22    68 1
    72    23    69 1
    73    23    70 1
    74    24    71 1
    75    24    72 1
    76    25    73 1
    77    25    74 1
    78    26    75 1
    79    26    76 1
    80    27    77 1
    81    29    78 1
    82    30    79 1
    83    32    80 1
    84    32    81 1
    85    33    82 1
    86    34    83 1
    87    35    84 1
    88    35    85 1
    89    36    86 1
    90    37    87 1
    91    39    88 1
    92    39    89 1
@<TRIPOS>SUBSTRUCTURE
     1 8C9         1 TEMP              0 ****  ****    0 ROOT
