@<TRIPOS>MOLECULE
molecule
   41    44     1     0     0
SMALL
bcc


@<TRIPOS>ATOM
      1 O1           0.0000     0.0000     0.0000 o          1 8CA      -0.835800
      2 C7           1.2160     0.0000     0.0000 c          1 8CA       0.885200
      3 O2           1.8890     0.0000     1.1680 o          1 8CA      -0.835800
      4 C1           1.9520    -0.0070    -1.2760 ca         1 8CA      -0.094600
      5 C2           2.8030     1.0500    -1.6010 ca         1 8CA      -0.105000
      6 C3           3.4970     1.0480    -2.7960 ca         1 8CA      -0.168000
      7 C4           3.3610     0.0040    -3.6860 ca         1 8CA      -0.118000
      8 C5           2.5160    -1.0660    -3.3860 ca         1 8CA      -0.103800
      9 C8           2.1470    -2.2980    -4.0760 cc         1 8CA      -0.181400
     10 C13          2.6260    -2.7900    -5.4180 c3         1 8CA       0.007800
     11 C12          2.2980    -4.2840    -5.5340 c3         1 8CA      -0.080400
     12 C11          0.8310    -4.5100    -5.1540 c3         1 8CA      -0.074400
     13 C10          0.6510    -4.2810    -3.6490 c3         1 8CA      -0.010200
     14 C9           1.2750    -2.9530    -3.2870 cd         1 8CA      -0.053300
     15 N1           1.0620    -2.2330    -2.1450 na         1 8CA      -0.033400
     16 C6           1.8070    -1.0810    -2.1700 ca         1 8CA      -0.008200
     17 C20          0.1720    -2.6330    -1.0530 c3         1 8CA       0.053600
     18 C19          0.9020    -3.5760    -0.1310 ca         1 8CA      -0.086300
     19 C18          1.5180    -3.0910     1.0080 ca         1 8CA      -0.114000
     20 C17          2.1880    -3.9540     1.8540 ca         1 8CA      -0.152500
     21 C16          2.2430    -5.3040     1.5600 ca         1 8CA      -0.146000
     22 C15          1.6290    -5.7900     0.4220 ca         1 8CA      -0.152500
     23 C14          0.9530    -4.9270    -0.4210 ca         1 8CA      -0.114000
     24 H2           2.9200     1.8770    -0.9110 ha         1 8CA       0.135000
     25 H3           4.1540     1.8750    -3.0360 ha         1 8CA       0.104000
     26 H4           3.9100     0.0140    -4.6200 ha         1 8CA       0.104000
     27 H13          3.6970    -2.6460    -5.4960 hc         1 8CA       0.036200
     28 H13A         2.1210    -2.2440    -6.2060 hc         1 8CA       0.036200
     29 H12          2.9350    -4.8460    -4.8620 hc         1 8CA       0.033700
     30 H12A         2.4600    -4.6110    -6.5540 hc         1 8CA       0.033700
     31 H11          0.2070    -3.8130    -5.7010 hc         1 8CA       0.034700
     32 H11A         0.5480    -5.5260    -5.4000 hc         1 8CA       0.034700
     33 H10          1.1420    -5.0750    -3.1000 hc         1 8CA       0.048700
     34 H10A        -0.4050    -4.2640    -3.4080 hc         1 8CA       0.048700
     35 H20         -0.1390    -1.7550    -0.4990 h1         1 8CA       0.095700
     36 H20A        -0.7000    -3.1300    -1.4610 h1         1 8CA       0.095700
     37 H18          1.4350    -2.0410     1.2620 ha         1 8CA       0.168000
     38 H17          2.6840    -3.5710     2.7370 ha         1 8CA       0.118000
     39 H16          2.7710    -5.9800     2.2220 ha         1 8CA       0.106000
     40 H15          1.6970    -6.8430     0.1780 ha         1 8CA       0.118000
     41 H14          0.2180    -5.6100    -0.8280 ha         1 8CA       0.168000
@<TRIPOS>BOND
     1     1     2 1
     2     3     2 1
     3     2     4 1
     4    16     4 ar
     5     4     5 ar
     6     5     6 ar
     7     5    24 1
     8     7     6 ar
     9     6    25 1
    10     8     7 ar
    11     7    26 1
    12    16     8 ar
    13     9     8 1
    14    14     9 2
    15     9    10 1
    16    11    10 1
    17    10    27 1
    18    10    28 1
    19    12    11 1
    20    11    29 1
    21    11    30 1
    22    13    12 1
    23    12    31 1
    24    12    32 1
    25    13    14 1
    26    13    33 1
    27    13    34 1
    28    15    14 1
    29    17    15 1
    30    15    16 1
    31    18    17 1
    32    17    35 1
    33    17    36 1
    34    23    18 ar
    35    18    19 ar
    36    20    19 ar
    37    19    37 1
    38    21    20 ar
    39    20    38 1
    40    22    21 ar
    41    21    39 1
    42    22    23 ar
    43    22    40 1
    44    23    41 1
@<TRIPOS>SUBSTRUCTURE
     1 8CA         1 TEMP              0 ****  ****    0 ROOT
