@<TRIPOS>MOLECULE
8CA
   41    44     1     0     0
SMALL
bcc


@<TRIPOS>ATOM
      1 O1         -0.0560    0.2590    0.0690 o         1 8CA     -0.828300
      2 C7          1.2020    0.1290    0.0590 c         1 8CA      0.904200
      3 O2          1.9030    0.0510    1.1090 o         1 8CA     -0.828300
      4 C1          1.9120    0.0570   -1.2790 ca        1 8CA     -0.103600
      5 C2          2.7330    1.1130   -1.6570 ca        1 8CA     -0.120000
      6 C3          3.4190    1.1340   -2.8830 ca        1 8CA     -0.162000
      7 C4          3.3100    0.0830   -3.7780 ca        1 8CA     -0.127000
      8 C5          2.5050   -1.0060   -3.4410 ca        1 8CA     -0.091800
      9 C8          2.1800   -2.2360   -4.1160 cc        1 8CA     -0.166400
     10 C13         2.6140   -2.7160   -5.4340 c3        1 8CA      0.009800
     11 C12         2.3330   -4.2030   -5.5900 c3        1 8CA     -0.073400
     12 C11         0.9470   -4.5690   -5.1000 c3        1 8CA     -0.068400
     13 C10         0.7650   -4.2850   -3.6170 c3        1 8CA     -0.013200
     14 C9          1.3140   -2.9510   -3.2800 cd        1 8CA     -0.069300
     15 N1          1.0610   -2.2240   -2.1070 na        1 8CA     -0.041400
     16 C6          1.7950   -1.0250   -2.1760 ca        1 8CA     -0.011200
     17 C20         0.2490   -2.6930   -1.0210 c3        1 8CA      0.059600
     18 C19         0.9230   -3.6670   -0.0910 ca        1 8CA     -0.102300
     19 C18         1.7200   -3.1940    0.9580 ca        1 8CA     -0.112000
     20 C17         2.3130   -4.0990    1.8390 ca        1 8CA     -0.147000
     21 C16         2.1150   -5.4700    1.6820 ca        1 8CA     -0.141000
     22 C15         1.3180   -5.9420    0.6390 ca        1 8CA     -0.147000
     23 C14         0.7260   -5.0430   -0.2460 ca        1 8CA     -0.112000
     24 H2          2.8490    1.9560   -0.9590 ha        1 8CA      0.132000
     25 H3          4.0510    1.9990   -3.1270 ha        1 8CA      0.104000
     26 H4          3.8430    0.0930   -4.7380 ha        1 8CA      0.107000
     27 H13         2.0740   -2.1460   -6.2390 hc        1 8CA      0.033700
     28 H13A        3.7120   -2.5230   -5.5740 hc        1 8CA      0.033700
     29 H12         2.4360   -4.4900   -6.6690 hc        1 8CA      0.030700
     30 H12A        3.0950   -4.7860   -5.0100 hc        1 8CA      0.030700
     31 H11         0.1850   -3.9880   -5.6830 hc        1 8CA      0.032200
     32 H11A        0.7580   -5.6590   -5.2870 hc        1 8CA      0.032200
     33 H10         1.3010   -5.0660   -3.0100 hc        1 8CA      0.046200
     34 H10A       -0.3250   -4.3490   -3.3550 hc        1 8CA      0.046200
     35 H20        -0.6620   -3.1920   -1.4660 h1        1 8CA      0.092200
     36 H20A       -0.0990   -1.7910   -0.4230 h1        1 8CA      0.092200
     37 H18         1.8690   -2.1000    1.0900 ha        1 8CA      0.163500
     38 H17         2.9380   -3.7220    2.6610 ha        1 8CA      0.120000
     39 H16         2.5830   -6.1790    2.3790 ha        1 8CA      0.111000
     40 H15         1.1580   -7.0220    0.5140 ha        1 8CA      0.120000
     41 H14         0.1000   -5.4160   -1.0700 ha        1 8CA      0.163500
@<TRIPOS>BOND
     1    1    2 1   
     2    2    3 1   
     3    2    4 1   
     4    4    5 ar  
     5    4   16 ar  
     6    5    6 ar  
     7    5   24 1   
     8    6    7 ar  
     9    6   25 1   
    10    7    8 ar  
    11    7   26 1   
    12    8    9 1   
    13    8   16 ar  
    14    9   10 1   
    15    9   14 2   
    16   10   11 1   
    17   10   27 1   
    18   10   28 1   
    19   11   12 1   
    20   11   29 1   
    21   11   30 1   
    22   12   13 1   
    23   12   31 1   
    24   12   32 1   
    25   13   14 1   
    26   13   33 1   
    27   13   34 1   
    28   14   15 1   
    29   15   16 1   
    30   15   17 1   
    31   17   18 1   
    32   17   35 1   
    33   17   36 1   
    34   18   19 ar  
    35   18   23 ar  
    36   19   20 ar  
    37   19   37 1   
    38   20   21 ar  
    39   20   38 1   
    40   21   22 ar  
    41   21   39 1   
    42   22   23 ar  
    43   22   40 1   
    44   23   41 1   
@<TRIPOS>SUBSTRUCTURE
     1 8CA         1 TEMP              0 ****  ****    0 ROOT
