@<TRIPOS>MOLECULE
8CC
   26    27     1     0     0
SMALL
bcc


@<TRIPOS>ATOM
      1 C10          0.0000     0.0000     0.0000 ca         1 8CC       0.056000
      2 C15          1.3990     0.0000     0.0000 ca         1 8CC      -0.231300
      3 C01         -5.2450    -0.0040    -5.2940 c3         1 8CC       0.092300
      4 N02         -3.9100    -0.0030    -4.6910 ns         1 8CC      -0.209900
      5 O04         -4.7640     0.0060    -2.6390 o          1 8CC      -0.631100
      6 C05         -2.4380     0.0010    -2.7450 cc         1 8CC      -0.411900
      7 C06         -2.1640     0.0010    -1.4070 cd         1 8CC      -0.052000
      8 C07         -0.7610     0.0000    -1.2730 cd         1 8CC      -0.138000
      9 C08         -0.2280     0.0010    -2.5430 cc         1 8CC      -0.305300
     10 N09         -1.2440    -0.0040    -3.4300 na         1 8CC       0.432900
     11 C11         -0.6600    -0.0050     1.2320 ca         1 8CC      -0.231300
     12 C12          0.0870    -0.0100     2.3910 ca         1 8CC       0.409700
     13 N13          1.4050    -0.0110     2.3470 nb         1 8CC      -0.596000
     14 C14          2.0670     0.0000     1.2060 ca         1 8CC       0.409700
     15 H1           1.9490     0.0090    -0.9330 ha         1 8CC       0.116000
     16 H2          -5.1530    -0.0080    -6.3730 h1         1 8CC       0.010367
     17 H3          -5.7830     0.8830    -4.9810 h1         1 8CC       0.010367
     18 H4          -5.7860    -0.8860    -4.9730 h1         1 8CC       0.010367
     19 H5          -3.0970    -0.0070    -5.2750 hn         1 8CC       0.156500
     20 H6          -2.8800     0.1600    -0.6100 ha         1 8CC       0.144000
     21 H7           0.8270    -0.0010    -2.7870 h4         1 8CC       0.150000
     22 H8          -1.1450    -0.0050    -4.4260 hn         1 8CC       0.105700
     23 H9          -1.7430    -0.0050     1.2760 ha         1 8CC       0.116000
     24 H10         -0.4160    -0.0170     3.3510 h4         1 8CC      -0.022900
     25 H11          3.1500    -0.0010     1.2170 h4         1 8CC      -0.022900
     26 C03         -3.7750     0.0020    -3.3490 c          1 8CC       0.633700
@<TRIPOS>BOND
     1     1     2 ar  
     2     1     8 1   
     3     1    11 ar  
     4     2    14 ar  
     5     2    15 1   
     6     3     4 1   
     7     3    16 1   
     8     3    17 1   
     9     3    18 1   
    10     4    19 1   
    11     4    26 1   
    12     5    26 2   
    13     6     7 2   
    14     6    10 1   
    15     6    26 1   
    16     7     8 1   
    17     7    20 1   
    18     8     9 2   
    19     9    10 1   
    20     9    21 1   
    21    10    22 1   
    22    11    12 ar  
    23    11    23 1   
    24    12    13 ar  
    25    12    24 1   
    26    13    14 ar  
    27    14    25 1   
@<TRIPOS>SUBSTRUCTURE
     1 8CC         1 TEMP              0 ****  ****    0 ROOT
