@<TRIPOS>MOLECULE
molecule
   26    27     1     0     0
SMALL
bcc


@<TRIPOS>ATOM
      1 C10          0.0000     0.0000     0.0000 ca         1 8CC       0.046000
      2 C15          1.3990     0.0000     0.0000 ca         1 8CC      -0.256300
      3 C01         -5.2450    -0.0040    -5.2940 c3         1 8CC       0.105300
      4 N02         -3.9100    -0.0030    -4.6910 ns         1 8CC      -0.592900
      5 O04         -4.7640     0.0060    -2.6390 o          1 8CC      -0.591100
      6 C05         -2.4380     0.0010    -2.7450 cc         1 8CC      -0.198900
      7 C06         -2.1640     0.0010    -1.4070 cc         1 8CC      -0.091000
      8 C07         -0.7610     0.0000    -1.2730 cc         1 8CC      -0.145000
      9 C08         -0.2280     0.0010    -2.5430 cd         1 8CC      -0.114300
     10 N09         -1.2440    -0.0040    -3.4300 na         1 8CC      -0.145100
     11 C11         -0.6600    -0.0050     1.2320 ca         1 8CC      -0.256300
     12 C12          0.0870    -0.0100     2.3910 ca         1 8CC       0.423700
     13 N13          1.4050    -0.0110     2.3470 nb         1 8CC      -0.700000
     14 C14          2.0670     0.0000     1.2060 ca         1 8CC       0.423700
     15 H1           1.9490     0.0090    -0.9330 ha         1 8CC       0.137000
     16 H2          -5.1530    -0.0080    -6.3730 h1         1 8CC       0.044033
     17 H3          -5.7830     0.8830    -4.9810 h1         1 8CC       0.044033
     18 H4          -5.7860    -0.8860    -4.9730 h1         1 8CC       0.044033
     19 H5          -3.0970    -0.0070    -5.2750 hn         1 8CC       0.301500
     20 H6          -2.8800     0.1600    -0.6100 ha         1 8CC       0.173000
     21 H7           0.8270    -0.0010    -2.7870 h4         1 8CC       0.173000
     22 H8          -1.1450    -0.0050    -4.4260 hn         1 8CC       0.294700
     23 H9          -1.7430    -0.0050     1.2760 ha         1 8CC       0.137000
     24 H10         -0.4160    -0.0170     3.3510 h4         1 8CC       0.021600
     25 H11          3.1500    -0.0010     1.2170 h4         1 8CC       0.021600
     26 C03         -3.7750     0.0020    -3.3490 c          1 8CC       0.700700
@<TRIPOS>BOND
     1    12    13 ar  
     2    12    11 ar  
     3    13    14 ar  
     4    11     1 ar  
     5    14     2 ar  
     6     1     2 ar  
     7     1     8 1   
     8     7     8 1   
     9     7     6 2   
    10     4     3 1   
    11     4    26 1   
    12     8     9 2   
    13     6    26 1   
    14     6    10 1   
    15    26     5 2   
    16     9    10 1   
    17     2    15 1   
    18     3    16 1   
    19     3    17 1   
    20     3    18 1   
    21     4    19 1   
    22     7    20 1   
    23     9    21 1   
    24    10    22 1   
    25    11    23 1   
    26    12    24 1   
    27    14    25 1   
@<TRIPOS>SUBSTRUCTURE
     1 8CC         1 TEMP              0 ****  ****    0 ROOT
