@<TRIPOS>MOLECULE
molecule
   47    49     1     0     0
SMALL
bcc


@<TRIPOS>ATOM
      1 N3           0.0000     0.0000     0.0000 nz         1 8CD      -0.680400
      2 C4           3.4950     0.0010    -1.2750 ca         1 8CD       0.192100
      3 N2           8.1430    -1.2630    -5.4360 ns         1 8CD      -0.604900
      4 C7           2.0960    -0.0010    -3.6840 ca         1 8CD      -0.017000
      5 C6           3.5140    -0.0000    -3.6700 ca         1 8CD      -0.094300
      6 C9           2.1930    -0.0040    -6.0670 ca         1 8CD       0.483200
      7 C13          8.3950     0.0610    -7.4200 c3         1 8CD      -0.061400
      8 C8           1.4410    -0.0030    -4.9330 ca         1 8CD      -0.283300
      9 C18          1.3480     0.0000     0.0000 c          1 8CD       0.496700
     10 C16          1.3870    -0.0010    -2.4770 ca         1 8CD      -0.076000
     11 O4           1.9560     0.0000     1.0520 o          1 8CD      -0.386100
     12 C17          2.0850    -0.0000    -1.2800 ca         1 8CD      -0.199600
     13 C2           5.5850     0.1130    -0.1510 c3         1 8CD       0.129100
     14 C3           6.1030     0.6970     1.1660 c3         1 8CD      -0.106600
     15 C1           6.2020    -1.2690    -0.3740 c3         1 8CD      -0.106600
     16 N1           3.5180    -0.0030    -6.0310 nb         1 8CD      -0.751000
     17 C10          4.2000    -0.0020    -4.9040 ca         1 8CD       0.685600
     18 C5           4.1980     0.0000    -2.4470 ca         1 8CD      -0.164000
     19 O2           5.5550    -0.0010    -4.9300 os         1 8CD      -0.440100
     20 C11          6.1800    -0.0020    -6.2140 c3         1 8CD       0.132400
     21 C12          7.7000    -0.0010    -6.0420 c3         1 8CD       0.090700
     22 C15          9.2390    -1.7410    -6.0510 c          1 8CD       0.717500
     23 O3           9.8170    -2.7630    -5.7460 o          1 8CD      -0.609500
     24 C14          9.6470    -0.8190    -7.1790 c3         1 8CD      -0.214400
     25 H21         -0.3340     0.8140    -0.4770 hn         1 8CD       0.475133
     26 H20         -0.3340     0.0060     0.9440 hn         1 8CD       0.475133
     27 H18          7.6880    -1.7100    -4.6650 hn         1 8CD       0.343500
     28 H11          1.6940    -0.0050    -7.0290 h4         1 8CD       0.044100
     29 H14          7.7640    -0.3690    -8.1890 hc         1 8CD       0.062200
     30 H15          8.6780     1.0780    -7.6630 hc         1 8CD       0.062200
     31 H10          0.3590    -0.0030    -4.9890 ha         1 8CD       0.149000
     32 H19          0.3040    -0.0020    -2.4790 ha         1 8CD       0.118000
     33 H5           5.8550     0.7710    -0.9680 h1         1 8CD       0.051700
     34 H6           7.1790     0.8070     1.1130 hc         1 8CD       0.057033
     35 H7           5.6490     1.6660     1.3350 hc         1 8CD       0.057033
     36 H8           5.8480     0.0310     1.9810 hc         1 8CD       0.057033
     37 H4           5.9470    -1.6230    -1.3650 hc         1 8CD       0.057033
     38 H2           5.8180    -1.9600     0.3670 hc         1 8CD       0.057033
     39 H3           7.2800    -1.2030    -0.2800 hc         1 8CD       0.057033
     40 H9           5.2810     0.0010    -2.4310 ha         1 8CD       0.186000
     41 H12          5.8790    -0.8880    -6.7610 h1         1 8CD       0.070200
     42 H13          5.8780     0.8810    -6.7640 h1         1 8CD       0.070200
     43 H1           8.0130     0.8360    -5.4300 h1         1 8CD       0.063700
     44 H16          9.5910    -0.0090    -6.4620 hc         1 8CD       0.092700
     45 H17         10.6010    -0.7740    -7.6910 hc         1 8CD       0.092700
     46 H33         -0.3340    -0.8200    -0.4670 hn         1 8CD       0.475133
     47 O1           4.1620    -0.0040    -0.0930 os         1 8CD      -0.307900
@<TRIPOS>BOND
     1    11     9 2
     2     1     9 1
     3     9    12 1
     4    12    10 ar
     5    12     2 ar
     6    10     4 ar
     7    47     2 1
     8    47    13 1
     9     2    18 ar
    10    14    13 1
    11     4     8 ar
    12     4     5 ar
    13     8     6 ar
    14    13    15 1
    15    18     5 ar
    16     5    17 ar
    17     6    16 ar
    18    17    16 ar
    19    17    19 1
    20    19    20 1
    21    23    22 2
    22    22    24 1
    23    22     3 1
    24    20    21 1
    25    24     7 1
    26     3    21 1
    27    21     7 1
    28     1    25 1
    29     1    26 1
    30     3    27 1
    31     6    28 1
    32     7    29 1
    33     7    30 1
    34     8    31 1
    35    10    32 1
    36    13    33 1
    37    14    34 1
    38    14    35 1
    39    14    36 1
    40    15    37 1
    41    15    38 1
    42    15    39 1
    43    18    40 1
    44    20    41 1
    45    20    42 1
    46    21    43 1
    47    24    44 1
    48    24    45 1
    49    46     1 1
@<TRIPOS>SUBSTRUCTURE
     1 8CD         1 TEMP              0 ****  ****    0 ROOT
