@<TRIPOS>MOLECULE
8CD
   47    49     1     0     0
SMALL
bcc


@<TRIPOS>ATOM
      1 N3           0.0000     0.0000     0.0000 nz         1 8CD       0.196600
      2 C4           3.4950     0.0010    -1.2750 ca         1 8CD       0.212100
      3 N2           8.1430    -1.2630    -5.4360 ns         1 8CD      -0.229900
      4 C7           2.0960    -0.0010    -3.6840 ca         1 8CD      -0.021000
      5 C6           3.5140    -0.0000    -3.6700 ca         1 8CD      -0.085300
      6 C9           2.1930    -0.0040    -6.0670 ca         1 8CD       0.473200
      7 C13          8.3950     0.0610    -7.4200 c3         1 8CD       0.015600
      8 C8           1.4410    -0.0030    -4.9330 ca         1 8CD      -0.253300
      9 C18          1.3480     0.0000     0.0000 c          1 8CD       0.344700
     10 C16          1.3870    -0.0010    -2.4770 ca         1 8CD      -0.040000
     11 O4           1.9560     0.0000     1.0520 o          1 8CD      -0.403100
     12 C17          2.0850    -0.0000    -1.2800 ca         1 8CD      -0.228600
     13 C2           5.5850     0.1130    -0.1510 c3         1 8CD       0.159100
     14 C3           6.1030     0.6970     1.1660 c3         1 8CD      -0.015100
     15 C1           6.2020    -1.2690    -0.3740 c3         1 8CD      -0.015100
     16 N1           3.5180    -0.0030    -6.0310 nb         1 8CD      -0.637000
     17 C10          4.2000    -0.0020    -4.9040 ca         1 8CD       0.645600
     18 C5           4.1980     0.0000    -2.4470 ca         1 8CD      -0.157000
     19 O2           5.5550    -0.0010    -4.9300 os         1 8CD      -0.430100
     20 C11          6.1800    -0.0020    -6.2140 c3         1 8CD       0.202400
     21 C12          7.7000    -0.0010    -6.0420 c3         1 8CD      -0.004300
     22 C15          9.2390    -1.7410    -6.0510 c          1 8CD       0.646500
     23 O3           9.8170    -2.7630    -5.7460 o          1 8CD      -0.648500
     24 C14          9.6470    -0.8190    -7.1790 c3         1 8CD      -0.168400
     25 H21         -0.3340     0.8140    -0.4770 hn         1 8CD       0.245467
     26 H20         -0.3340     0.0060     0.9440 hn         1 8CD       0.245467
     27 H18          7.6880    -1.7100    -4.6650 hn         1 8CD       0.200500
     28 H11          1.6940    -0.0050    -7.0290 h4         1 8CD      -0.005900
     29 H14          7.7640    -0.3690    -8.1890 hc         1 8CD       0.025700
     30 H15          8.6780     1.0780    -7.6630 hc         1 8CD       0.025700
     31 H10          0.3590    -0.0030    -4.9890 ha         1 8CD       0.124000
     32 H19          0.3040    -0.0020    -2.4790 ha         1 8CD       0.087000
     33 H5           5.8550     0.7710    -0.9680 h1         1 8CD       0.022700
     34 H6           7.1790     0.8070     1.1130 hc         1 8CD       0.021367
     35 H7           5.6490     1.6660     1.3350 hc         1 8CD       0.021367
     36 H8           5.8480     0.0310     1.9810 hc         1 8CD       0.021367
     37 H4           5.9470    -1.6230    -1.3650 hc         1 8CD       0.021367
     38 H2           5.8180    -1.9600     0.3670 hc         1 8CD       0.021367
     39 H3           7.2800    -1.2030    -0.2800 hc         1 8CD       0.021367
     40 H9           5.2810     0.0010    -2.4310 ha         1 8CD       0.164000
     41 H12          5.8790    -0.8880    -6.7610 h1         1 8CD       0.029200
     42 H13          5.8780     0.8810    -6.7640 h1         1 8CD       0.029200
     43 H1           8.0130     0.8360    -5.4300 h1         1 8CD       0.036700
     44 H16          9.5910    -0.0090    -6.4620 hc         1 8CD       0.059700
     45 H17         10.6010    -0.7740    -7.6910 hc         1 8CD       0.059700
     46 H33         -0.3340    -0.8200    -0.4670 hn         1 8CD       0.245467
     47 O1           4.1620    -0.0040    -0.0930 os         1 8CD      -0.280900
@<TRIPOS>BOND
     1     1     9 1   
     2     1    25 1   
     3     1    26 1   
     4     1    46 1   
     5     2    12 ar  
     6     2    18 ar  
     7     2    47 1   
     8     3    21 1   
     9     3    22 1   
    10     3    27 1   
    11     4     5 ar  
    12     4     8 ar  
    13     4    10 ar  
    14     5    17 ar  
    15     5    18 ar  
    16     6     8 ar  
    17     6    16 ar  
    18     6    28 1   
    19     7    21 1   
    20     7    24 1   
    21     7    29 1   
    22     7    30 1   
    23     8    31 1   
    24     9    11 2   
    25     9    12 1   
    26    10    12 ar  
    27    10    32 1   
    28    13    14 1   
    29    13    15 1   
    30    13    33 1   
    31    13    47 1   
    32    14    34 1   
    33    14    35 1   
    34    14    36 1   
    35    15    37 1   
    36    15    38 1   
    37    15    39 1   
    38    16    17 ar  
    39    17    19 1   
    40    18    40 1   
    41    19    20 1   
    42    20    21 1   
    43    20    41 1   
    44    20    42 1   
    45    21    43 1   
    46    22    23 2   
    47    22    24 1   
    48    24    44 1   
    49    24    45 1   
@<TRIPOS>SUBSTRUCTURE
     1 8CD         1 TEMP              0 ****  ****    0 ROOT
