@<TRIPOS>MOLECULE
molecule
   12    12     1     0     0
SMALL
bcc


@<TRIPOS>ATOM
      1 Cl6          0.0000     0.0000     0.0000 cl         1 8CL      -0.111400
      2 C1           1.7360     0.0000     0.0000 ca         1 8CL       0.029400
      3 C2           2.4280     0.0000     1.1980 ca         1 8CL      -0.122000
      4 C3           3.8100    -0.0000     1.1970 ca         1 8CL      -0.120000
      5 C4           4.5010    -0.0000    -0.0000 ca         1 8CL      -0.127000
      6 C5           3.8110    -0.0000    -1.1970 ca         1 8CL      -0.120000
      7 C6           2.4280    -0.0070    -1.1980 ca         1 8CL      -0.122000
      8 H2           1.8870     0.0000     2.1360 ha         1 8CL       0.143000
      9 H3           4.3520    -0.0000     2.1350 ha         1 8CL       0.136000
     10 H4           5.5840     0.0030     0.0000 ha         1 8CL       0.133000
     11 H5           4.3530    -0.0030    -2.1350 ha         1 8CL       0.136000
     12 H6           1.8870    -0.0070    -2.1360 ha         1 8CL       0.143000
@<TRIPOS>BOND
     1     1     2 1
     2     3     2 ar
     3     2     7 ar
     4     3     4 ar
     5     3     8 1
     6     4     5 ar
     7     4     9 1
     8     5     6 ar
     9     5    10 1
    10     7     6 ar
    11     6    11 1
    12     7    12 1
@<TRIPOS>SUBSTRUCTURE
     1 8CL         1 TEMP              0 ****  ****    0 ROOT
