@<TRIPOS>MOLECULE
8CL
   12    12     1     0     0
SMALL
bcc


@<TRIPOS>ATOM
      1 CL6         0.0240   -0.0030   -0.0000 cl        1 8CL     -0.097400
      2 C1          1.7250   -0.0020   -0.0000 ca        1 8CL      0.017400
      3 C2          2.4170   -0.0000    1.2150 ca        1 8CL     -0.124000
      4 C3          3.8110    0.0010    1.2080 ca        1 8CL     -0.122000
      5 C4          4.5090   -0.0000    0.0000 ca        1 8CL     -0.129000
      6 C5          3.8110   -0.0020   -1.2080 ca        1 8CL     -0.122000
      7 C6          2.4170   -0.0030   -1.2150 ca        1 8CL     -0.124000
      8 H2          1.8670    0.0010    2.1680 ha        1 8CL      0.147000
      9 H3          4.3600    0.0030    2.1610 ha        1 8CL      0.137000
     10 H4          5.6090    0.0000    0.0000 ha        1 8CL      0.135000
     11 H5          4.3600   -0.0030   -2.1610 ha        1 8CL      0.137000
     12 H6          1.8680   -0.0050   -2.1680 ha        1 8CL      0.147000
@<TRIPOS>BOND
     1    1    2 1   
     2    2    3 ar  
     3    2    7 ar  
     4    3    4 ar  
     5    3    8 1   
     6    4    5 ar  
     7    4    9 1   
     8    5    6 ar  
     9    5   10 1   
    10    6    7 ar  
    11    6   11 1   
    12    7   12 1   
@<TRIPOS>SUBSTRUCTURE
     1 8CL         1 TEMP              0 ****  ****    0 ROOT
