@<TRIPOS>MOLECULE
8CM
   18    19     1     0     0
SMALL
bcc


@<TRIPOS>ATOM
      1 C5          0.0020   -0.0280   -0.0590 ca        1 8CM     -0.112000
      2 C6          1.3910   -0.0170   -0.0730 ca        1 8CM     -0.120000
      3 C7          2.1240    0.0380    1.1160 ca        1 8CM     -0.123000
      4 C8          1.4550    0.0840    2.3430 ca        1 8CM      0.120100
      5 C1A         0.0400    0.0730    2.3600 ca        1 8CM      0.067100
      6 C4A        -0.6920    0.0170    1.1610 ca        1 8CM     -0.113800
      7 C4         -2.1340    0.0090    1.2470 cc        1 8CM     -0.012200
      8 C3         -2.7340    0.0550    2.4530 cd        1 8CM     -0.246200
      9 C2         -1.9480    0.1120    3.6790 c         1 8CM      0.724800
     10 O1         -0.5530    0.1200    3.6060 os        1 8CM     -0.344200
     11 O2         -2.3230    0.1580    4.8480 o         1 8CM     -0.562500
     12 O8          2.2140    0.1370    3.4840 oh        1 8CM     -0.488100
     13 H5         -0.5650   -0.0710   -1.0000 ha        1 8CM      0.141000
     14 H6          1.9290   -0.0530   -1.0320 ha        1 8CM      0.143000
     15 H7          3.2240    0.0460    1.1050 ha        1 8CM      0.159000
     16 H4         -2.7090   -0.0340    0.3090 ha        1 8CM      0.151000
     17 H3         -3.8250    0.0520    2.5870 ha        1 8CM      0.171000
     18 HO8         1.6150    0.1640    4.2470 ho        1 8CM      0.445000
@<TRIPOS>BOND
     1    1    2 ar  
     2    1    6 ar  
     3    1   13 1   
     4    2    3 ar  
     5    2   14 1   
     6    3    4 ar  
     7    3   15 1   
     8    4    5 ar  
     9    4   12 1   
    10    5    6 ar  
    11    5   10 1   
    12    6    7 1   
    13    7    8 2   
    14    7   16 1   
    15    8    9 1   
    16    8   17 1   
    17    9   10 1   
    18    9   11 2   
    19   12   18 1   
@<TRIPOS>SUBSTRUCTURE
     1 8CM         1 TEMP              0 ****  ****    0 ROOT
