@<TRIPOS>MOLECULE
molecule
   42    43     1     0     0
SMALL
bcc


@<TRIPOS>ATOM
      1 N1           0.0000     0.0000     0.0000 n          1 8CP      -0.389000
      2 C2           1.3460     0.0000     0.0000 c          1 8CP       0.855900
      3 N3           2.0330     0.0000     1.1400 nc         1 8CP      -0.860100
      4 C4           1.4060     0.0010     2.3090 cd         1 8CP       0.163500
      5 C5          -0.0030     0.0020     2.3440 cd         1 8CP      -0.287600
      6 C6          -0.6880     0.0010     1.1760 cc         1 8CP      -0.093400
      7 O2           1.9460    -0.0010    -1.0620 o          1 8CP      -0.708500
      8 N4           2.1270     0.0020     3.4810 nz         1 8CP      -0.622600
      9 C1'         -0.7290     0.0050    -1.2710 c3         1 8CP       0.319500
     10 C2'         -0.3970     1.2820    -2.0760 c3         1 8CP      -0.145400
     11 C3'         -0.3540     0.8000    -3.5430 c3         1 8CP       0.106100
     12 C4'         -0.6650    -0.7100    -3.4510 c3         1 8CP       0.132100
     13 O4'         -0.2850    -1.0840    -2.1090 os         1 8CP      -0.354600
     14 O3'         -1.3510     1.4690    -4.3190 oh         1 8CP      -0.617800
     15 C5'          0.1650    -1.4870    -4.4760 c3         1 8CP       0.240400
     16 O5'         -0.2200    -2.8630    -4.4550 os         1 8CP      -0.603200
     17 PA           0.4500    -3.9760    -5.4080 p5         1 8CP       1.438800
     18 O1A          2.0020    -4.1490    -5.0210 o          1 8CP      -0.840000
     19 O2A          0.3380    -3.5470    -6.8200 o          1 8CP      -0.840000
     20 O3A         -0.3130    -5.3800    -5.2120 os         1 8CP      -0.720800
     21 PB          -0.3530    -6.7560    -6.0450 p5         1 8CP       1.402700
     22 O1B         -0.9000    -6.4690    -7.5310 o          1 8CP      -0.661000
     23 O2B          1.0110    -7.3250    -6.1230 o          1 8CP      -0.661000
     24 PG          -1.4430    -9.3070    -6.1130 p5         1 8CP       1.129800
     25 O1G          0.0310    -9.9480    -6.1990 o          1 8CP      -0.611833
     26 O2G         -2.4270   -10.3230    -5.3430 o          1 8CP      -0.611833
     27 O3G         -1.9560    -9.0630    -7.4790 o          1 8CP      -0.611833
     28 N3B         -1.3730    -7.8500    -5.2720 n7         1 8CP      -0.899400
     29 H1          -0.5210     0.1940     3.2760 ha         1 8CP       0.063000
     30 H2          -1.7600    -0.1530     1.1770 h4         1 8CP       0.111000
     31 H3           1.7920    -0.7270     4.0800 hn         1 8CP       0.357133
     32 H4           3.0950    -0.1530     3.2780 hn         1 8CP       0.357133
     33 H5          -1.7960    -0.0640    -1.1000 h2         1 8CP       0.028700
     34 H6           0.5670     1.6760    -1.7790 hc         1 8CP       0.053700
     35 H7          -1.1750     2.0240    -1.9440 hc         1 8CP       0.053700
     36 H8           0.6320     0.9570    -3.9630 h1         1 8CP       0.056700
     37 H9          -1.7230    -0.8850    -3.6040 h1         1 8CP       0.051700
     38 H10         -0.9430     2.1360    -4.8460 ho         1 8CP       0.381000
     39 H11         -0.0070    -1.0790    -5.4640 h1         1 8CP       0.037200
     40 H12          1.2160    -1.4030    -4.2280 h1         1 8CP       0.037200
     41 H17         -1.4490    -7.8430    -4.2740 hn         1 8CP       0.409800
     42 H43          2.0260     0.8880     3.9350 hn         1 8CP       0.357133
@<TRIPOS>BOND
     1     7     2 2
     2     2     3 1
     3     2     1 1
     4     3     4 2
     5    10     9 1
     6    10    11 1
     7     9     1 1
     8     9    13 1
     9     1     6 1
    10    14    11 1
    11     4     8 1
    12     4     5 1
    13    11    12 1
    14    13    12 1
    15     6     5 2
    16    12    15 1
    17    23    21 1
    18    15    16 1
    19    16    17 1
    20    21    20 1
    21    21    22 1
    22    21    28 1
    23    20    17 1
    24    28    24 1
    25    17    18 1
    26    17    19 1
    27    24    25 1
    28    24    27 1
    29    24    26 1
    30     5    29 1
    31     6    30 1
    32     8    31 1
    33     8    32 1
    34     9    33 1
    35    10    34 1
    36    10    35 1
    37    11    36 1
    38    12    37 1
    39    14    38 1
    40    15    39 1
    41    15    40 1
    42    28    41 1
    43    42     8 1
@<TRIPOS>SUBSTRUCTURE
     1 8CP         1 TEMP              0 ****  ****    0 ROOT
