@<TRIPOS>MOLECULE
molecule
   36    39     1     0     0
SMALL
bcc


@<TRIPOS>ATOM
      1 O4'          0.0000     0.0000     0.0000 o          1 8CS      -0.572500
      2 C4'          1.2220     0.0000     0.0000 c          1 8CS       0.695700
      3 C4A          1.9360     0.0000     1.2030 cc         1 8CS       0.073800
      4 N5'          1.2630    -0.0050     2.4440 nu         1 8CS      -0.719000
      5 N3'          1.9120    -0.0050    -1.1610 ns         1 8CS      -0.442400
      6 C2'          3.2730    -0.0110    -1.1460 cc         1 8CS       0.381800
      7 N2'          3.9550    -0.0220    -2.3370 nz         1 8CS      -0.713600
      8 N1'          3.9510    -0.0060    -0.0180 nd         1 8CS      -0.568300
      9 C4B          3.3240    -0.0000     1.1630 cd         1 8CS       0.304600
     10 N8'          4.0460     0.0120     2.3460 nu         1 8CS      -0.777000
     11 C7           3.3800    -0.3530     3.6010 c3         1 8CS       0.442300
     12 C6'          2.0140     0.3500     3.6590 c3         1 8CS       0.107500
     13 C7'          1.2590    -0.1900     4.8580 c          1 8CS       0.556100
     14 O10          0.7330     0.5470     5.6570 o          1 8CS      -0.431100
     15 C8'          1.1920    -1.7010     5.0090 c3         1 8CS       0.059100
     16 O3           0.3930    -2.2070     3.9210 os         1 8CS      -0.537200
     17 O9'          3.1920    -1.7670     3.6550 os         1 8CS      -0.405600
     18 C9'          2.6190    -2.2380     4.8740 c3         1 8CS       0.058100
     19 C10          2.6590    -3.7590     4.9370 c3         1 8CS       0.187400
     20 O1           1.9040    -4.3070     3.8420 os         1 8CS      -0.520200
     21 P            0.3750    -3.8020     3.6170 p5         1 8CS       1.551500
     22 O2          -0.0460    -4.0510     2.2200 o          1 8CS      -0.752300
     23 O4          -0.6150    -4.5520     4.6410 oh         1 8CS      -0.732400
     24 HN3'         1.4220    -0.0040    -2.0330 hn         1 8CS       0.348500
     25 H2'1         3.6830    -0.8250    -2.8690 hn         1 8CS       0.471133
     26 H2'2         3.7390     0.8080    -2.8520 hn         1 8CS       0.471133
     27 H7           3.9870    -0.0350     4.4400 h2         1 8CS       0.080700
     28 H6'          2.1380     1.4230     3.7350 h1         1 8CS       0.106700
     29 H8'          0.7630    -1.9760     5.9650 h1         1 8CS       0.101700
     30 H9'          3.2060    -1.8490     5.6970 h1         1 8CS       0.070700
     31 H101         2.2280    -4.0910     5.8730 h1         1 8CS       0.084200
     32 H102         3.6870    -4.0940     4.8680 h1         1 8CS       0.084200
     33 HO4         -1.3190    -4.9560     4.1590 ho         1 8CS       0.491000
     34 HN5'         0.2930    -0.2430     2.4970 hn         1 8CS       0.500800
     35 HN8'         5.0140     0.2670     2.3440 hn         1 8CS       0.472800
     36 H2'3         4.9390    -0.0500    -2.1580 hn         1 8CS       0.471133
@<TRIPOS>BOND
     1     1     2 2
     2     2     5 1
     3     2     3 1
     4     3     4 1
     5     3     9 2
     6     4    12 1
     7     4    34 1
     8     5     6 1
     9     5    24 1
    10     6     7 1
    11     6     8 2
    12     7    25 1
    13     7    26 1
    14     8     9 1
    15     9    10 1
    16    10    11 1
    17    10    35 1
    18    11    12 1
    19    11    17 1
    20    11    27 1
    21    12    13 1
    22    12    28 1
    23    13    15 1
    24    13    14 2
    25    15    16 1
    26    15    18 1
    27    15    29 1
    28    16    21 1
    29    17    18 1
    30    18    19 1
    31    18    30 1
    32    19    20 1
    33    19    31 1
    34    19    32 1
    35    20    21 1
    36    21    22 2
    37    21    23 1
    38    23    33 1
    39    36     7 1
@<TRIPOS>SUBSTRUCTURE
     1 8CS         1 TEMP              0 ****  ****    0 ROOT
