@<TRIPOS>MOLECULE
molecule
   96    97     1     0     0
SMALL
bcc


@<TRIPOS>ATOM
      1 C01          0.0000     0.0000     0.0000 c3         1 8CT      -0.053900
      2 C02          1.5070     0.0000     0.0000 c2         1 8CT      -0.125400
      3 C03          2.1310     0.0000     1.1660 ce         1 8CT      -0.079200
      4 C04          3.6240     0.0080     1.3110 c3         1 8CT      -0.015800
      5 C05          4.2840    -0.4080    -0.0060 c3         1 8CT      -0.068400
      6 C06          3.6730     0.4250    -1.1410 c3         1 8CT      -0.081400
      7 C07          2.2150    -0.0050    -1.3230 c3         1 8CT      -0.033200
      8 C08          4.0900     1.4160     1.6890 c3         1 8CT      -0.078100
      9 C09          4.0330    -0.9700     2.4130 c3         1 8CT      -0.078100
     10 C10          1.3440    -0.0100     2.3450 ce         1 8CT      -0.153000
     11 C11          0.4540    -1.0150     2.5600 cf         1 8CT      -0.103000
     12 C12         -0.2640    -1.0690     3.7680 cf         1 8CT      -0.215200
     13 C13         -1.1580    -2.0780     3.9840 ce         1 8CT      -0.019000
     14 C14         -1.8740    -2.1340     5.1880 ce         1 8CT      -0.192000
     15 C15         -2.6950    -3.2080     5.4510 cf         1 8CT      -0.168000
     16 C16         -2.7280    -4.2970     4.5720 cf         1 8CT      -0.100200
     17 C17         -3.8780    -4.5790     3.8680 ce         1 8CT      -0.312000
     18 C18         -5.0140    -3.7780     4.0330 ce         1 8CT      -0.299000
     19 C19         -6.1640    -4.0610     3.3280 cf         1 8CT      -0.345000
     20 C20         -6.1970    -5.1500     2.4500 cf         1 8CT      -0.418000
     21 C21         -7.3470    -5.4320     1.7460 ce         1 8CT       0.000800
     22 C22         -8.5700    -4.5690     1.9230 c3         1 8CT      -0.089900
     23 C23         -7.3790    -6.5220     0.8650 ce         1 8CT      -0.345000
     24 C24         -7.0740    -7.7740     1.3160 cf         1 8CT      -0.188000
     25 C25         -6.8510    -7.9920     2.6870 cf         1 8CT      -0.170000
     26 C26         -6.6450    -9.2520     3.1500 ce         1 8CT      -0.195200
     27 C27         -6.6580   -10.4170     2.1950 c3         1 8CT      -0.063900
     28 C28         -6.4200    -9.4720     4.5330 ce         1 8CT      -0.131000
     29 C29         -6.2180   -10.7120     4.9880 c2         1 8CT      -0.128200
     30 C30         -5.9790   -10.9460     6.4570 c3         1 8CT       0.014700
     31 C31         -7.0480   -11.8500     6.9980 c2         1 8CT      -0.122400
     32 C32         -6.8740   -13.1070     7.2520 c2         1 8CT      -0.167200
     33 C33         -5.5780   -13.8350     7.0500 c3         1 8CT      -0.045200
     34 C34         -4.6570   -13.0250     6.1330 c3         1 8CT      -0.070400
     35 C35         -4.6010   -11.5840     6.6520 c3         1 8CT      -0.058000
     36 C36         -4.2350   -11.5850     8.1370 c3         1 8CT      -0.082600
     37 C37         -3.5540   -10.7940     5.8640 c3         1 8CT      -0.082600
     38 C38         -8.4070   -11.2560     7.2630 c3         1 8CT      -0.054900
     39 C39         -1.5050    -5.1590     4.3950 c3         1 8CT      -0.042900
     40 C40         -0.0470    -0.0160     4.8230 c3         1 8CT      -0.033900
     41 H1          -0.3610     0.3820    -0.9470 hc         1 8CT       0.040700
     42 H2          -0.3610    -1.0110     0.1430 hc         1 8CT       0.040700
     43 H3          -0.3610     0.6290     0.8050 hc         1 8CT       0.040700
     44 H6           5.3500    -0.2220     0.0470 hc         1 8CT       0.042700
     45 H7           4.1000    -1.4600    -0.1880 hc         1 8CT       0.042700
     46 H8           4.2220     0.2480    -2.0580 hc         1 8CT       0.043200
     47 H9           3.7120     1.4770    -0.8820 hc         1 8CT       0.043200
     48 H10          2.1860    -1.0040    -1.7400 hc         1 8CT       0.046200
     49 H11          1.7200     0.6850    -1.9960 hc         1 8CT       0.046200
     50 H12          4.0190     1.5440     2.7620 hc         1 8CT       0.035033
     51 H13          3.4610     2.1490     1.1960 hc         1 8CT       0.035033
     52 H14          5.1170     1.5530     1.3750 hc         1 8CT       0.035033
     53 H15          3.7000    -0.5940     3.3730 hc         1 8CT       0.035033
     54 H16          3.5780    -1.9350     2.2270 hc         1 8CT       0.035033
     55 H17          5.1110    -1.0760     2.4210 hc         1 8CT       0.035033
     56 H18          1.4990     0.7470     3.1040 ha         1 8CT       0.133000
     57 H19          0.3460    -1.8080     1.8300 ha         1 8CT       0.120000
     58 H20         -1.3140    -2.8360     3.2250 ha         1 8CT       0.140000
     59 H21         -0.9320    -2.6520     5.0580 ha         1 8CT       0.131000
     60 H22         -3.3000    -3.2000     4.5520 ha         1 8CT       0.141000
     61 H23         -4.5540    -4.6410     4.7120 ha         1 8CT       0.326000
     62 H24         -4.3370    -3.7150     3.1890 ha         1 8CT       0.310000
     63 H25         -5.7310    -4.0580     2.3350 ha         1 8CT       0.317000
     64 H26         -6.6290    -5.1520     3.4430 ha         1 8CT       0.333000
     65 H27         -8.3510    -3.5610     1.5930 hc         1 8CT       0.058033
     66 H28         -9.3850    -4.9730     1.3350 hc         1 8CT       0.058033
     67 H29         -8.8520    -4.5520     2.9690 hc         1 8CT       0.058033
     68 H30         -6.5030    -6.0590     1.3010 ha         1 8CT       0.224000
     69 H31         -6.1120    -7.5760     1.7740 ha         1 8CT       0.276000
     70 H32         -7.7930    -8.1730     2.1850 ha         1 8CT       0.336000
     71 H33         -6.8920   -10.0640     1.1980 hc         1 8CT       0.054700
     72 H34         -5.6840   -10.8910     2.1910 hc         1 8CT       0.054700
     73 H35         -7.4060   -11.1340     2.5090 hc         1 8CT       0.054700
     74 H36         -6.4110    -8.6350     5.2200 ha         1 8CT       0.135000
     75 H37         -6.2260   -11.5500     4.3010 ha         1 8CT       0.134000
     76 H38         -6.0110   -10.0010     6.9850 hc         1 8CT       0.062700
     77 H40         -7.7180   -13.6690     7.6350 ha         1 8CT       0.121000
     78 H42         -5.0930   -13.9760     8.0080 hc         1 8CT       0.050700
     79 H43         -5.7760   -14.7980     6.5960 hc         1 8CT       0.050700
     80 H44         -5.0510   -13.0330     5.1230 hc         1 8CT       0.044200
     81 H45         -3.6630   -13.4550     6.1460 hc         1 8CT       0.044200
     82 H46         -3.9090   -10.5940     8.4300 hc         1 8CT       0.037533
     83 H47         -3.4360   -12.2950     8.3120 hc         1 8CT       0.037533
     84 H48         -5.1020   -11.8670     8.7220 hc         1 8CT       0.037533
     85 H49         -3.7010    -9.7330     6.0290 hc         1 8CT       0.037533
     86 H50         -2.5620   -11.0760     6.1970 hc         1 8CT       0.037533
     87 H51         -3.6550   -11.0120     4.8080 hc         1 8CT       0.037533
     88 H52         -9.0720   -11.4930     6.4410 hc         1 8CT       0.040700
     89 H53         -8.3190   -10.1810     7.3570 hc         1 8CT       0.040700
     90 H54         -8.8080   -11.6680     8.1820 hc         1 8CT       0.040700
     91 H55         -1.1250    -5.0450     3.3860 hc         1 8CT       0.052700
     92 H56         -0.7430    -4.8560     5.1030 hc         1 8CT       0.052700
     93 H57         -1.7650    -6.1960     4.5670 hc         1 8CT       0.052700
     94 H58         -0.1350     0.9660     4.3760 hc         1 8CT       0.041367
     95 H59          0.9420    -0.1310     5.2500 hc         1 8CT       0.041367
     96 H60         -0.7910    -0.1270     5.6020 hc         1 8CT       0.041367
@<TRIPOS>BOND
     1    36    35 1
     2    33    34 1
     3    33    32 1
     4    34    35 1
     5    35    37 1
     6    35    30 1
     7    32    31 2
     8    30    31 1
     9    30    29 1
    10    31    38 1
    11    29    28 2
    12    28    26 1
    13    27    26 1
    14    26    25 2
    15    25    24 1
    16    24    23 2
    17    22    21 1
    18    23    21 1
    19    21    20 2
    20    20    19 1
    21    19    18 2
    22    18    17 1
    23    17    16 2
    24    16    15 1
    25    16    39 1
    26    15    14 2
    27    14    13 1
    28    13    12 2
    29    40    12 1
    30    12    11 1
    31    11    10 2
    32     9     4 1
    33     8     4 1
    34    10     3 1
    35     4     3 1
    36     4     5 1
    37     3     2 2
    38     2     1 1
    39     2     7 1
    40     5     6 1
    41     6     7 1
    42     1    41 1
    43     1    42 1
    44     1    43 1
    45     5    44 1
    46     5    45 1
    47     6    46 1
    48     6    47 1
    49     7    48 1
    50     7    49 1
    51     8    50 1
    52     8    51 1
    53     8    52 1
    54     9    53 1
    55     9    54 1
    56     9    55 1
    57    10    56 1
    58    11    57 1
    59    13    58 1
    60    14    59 1
    61    15    60 1
    62    17    61 1
    63    18    62 1
    64    19    63 1
    65    20    64 1
    66    22    65 1
    67    22    66 1
    68    22    67 1
    69    23    68 1
    70    24    69 1
    71    25    70 1
    72    27    71 1
    73    27    72 1
    74    27    73 1
    75    28    74 1
    76    29    75 1
    77    30    76 1
    78    32    77 1
    79    33    78 1
    80    33    79 1
    81    34    80 1
    82    34    81 1
    83    36    82 1
    84    36    83 1
    85    36    84 1
    86    37    85 1
    87    37    86 1
    88    37    87 1
    89    38    88 1
    90    38    89 1
    91    38    90 1
    92    39    91 1
    93    39    92 1
    94    39    93 1
    95    40    94 1
    96    40    95 1
    97    40    96 1
@<TRIPOS>SUBSTRUCTURE
     1 8CT         1 TEMP              0 ****  ****    0 ROOT
