@<TRIPOS>MOLECULE
molecule
   31    31     1     0     0
SMALL
bcc


@<TRIPOS>ATOM
      1 C1           0.0000     0.0000     0.0000 ca         1 8CV      -0.083300
      2 C2          -0.7540    -0.0010    -1.3050 c3         1 8CV      -0.047100
      3 C3           1.3820     0.0000     0.0000 ca         1 8CV      -0.123000
      4 C4          -0.6910     0.0070     1.1970 ca         1 8CV      -0.123000
      5 C5          -1.0020     1.4420    -1.7510 c3         1 8CV       0.242800
      6 C6           2.0730     0.0000     1.1970 ca         1 8CV      -0.127000
      7 C7           0.0000     0.0080     2.3940 ca         1 8CV      -0.127000
      8 N1          -1.7350     1.4420    -3.0200 nu         1 8CV      -0.885200
      9 C8           1.3830     0.0010     2.3940 ca         1 8CV      -0.120000
     10 C9          -2.0730     2.6310    -3.6190 c2         1 8CV       0.826100
     11 N2          -2.6590     2.6340    -4.8680 nu         1 8CV      -0.782200
     12 N3          -1.8410     3.7580    -3.0060 n2         1 8CV      -0.851100
     13 C10         -3.0060     1.4420    -5.4690 c2         1 8CV       0.830100
     14 N4          -2.6790     0.3110    -4.9100 n2         1 8CV      -1.028100
     15 N5          -3.6980     1.4470    -6.6560 nz         1 8CV      -0.825600
     16 H1          -0.1710    -0.5160    -2.0590 hc         1 8CV       0.050200
     17 H2          -1.7030    -0.5060    -1.1740 hc         1 8CV       0.050200
     18 H3           1.9230    -0.0300    -0.9380 ha         1 8CV       0.133000
     19 H4          -1.7420    -0.0870     1.4440 ha         1 8CV       0.133000
     20 H5          -0.0530     1.9480    -1.8830 h1         1 8CV       0.068200
     21 H6          -1.5840     1.9580    -0.9970 h1         1 8CV       0.068200
     22 H7           3.1570    -0.0020     1.1970 ha         1 8CV       0.138000
     23 H8          -0.4930     0.0080     3.3580 ha         1 8CV       0.138000
     24 H9          -1.9680     0.5750    -3.4620 hn         1 8CV       0.478800
     25 H10          1.9320     0.0020     3.3280 ha         1 8CV       0.138000
     26 H11         -2.7950     3.4970    -5.3550 hn         1 8CV       0.456800
     27 H12         -2.0870     4.6250    -3.4420 hn         1 8CV       0.416400
     28 H13         -3.3010    -0.1250    -4.2590 hn         1 8CV       0.538400
     29 H14         -3.1740     1.9470    -7.3460 hn         1 8CV       0.471800
     30 H15         -4.5850     1.8920    -6.5240 hn         1 8CV       0.471800
     31 H53         -3.8400     0.5050    -6.9630 hn         1 8CV       0.471800
@<TRIPOS>BOND
     1     6     3 ar
     2     6     9 ar
     3     3     1 ar
     4     9     7 ar
     5     1     2 1
     6     1     4 ar
     7     7     4 ar
     8     2     5 1
     9     5     8 1
    10     8    10 1
    11    10    12 2
    12    10    11 1
    13    14    13 2
    14    11    13 1
    15    13    15 1
    16     2    16 1
    17     2    17 1
    18     3    18 1
    19     4    19 1
    20     5    20 1
    21     5    21 1
    22     6    22 1
    23     7    23 1
    24     8    24 1
    25     9    25 1
    26    11    26 1
    27    12    27 1
    28    14    28 1
    29    15    29 1
    30    15    30 1
    31    31    15 1
@<TRIPOS>SUBSTRUCTURE
     1 8CV         1 TEMP              0 ****  ****    0 ROOT
