@<TRIPOS>MOLECULE
8CV
   31    31     1     0     0
SMALL
bcc


@<TRIPOS>ATOM
      1 C1           0.0000     0.0000     0.0000 ca         1 8CV      -0.091300
      2 C2          -0.7540    -0.0010    -1.3050 c3         1 8CV       0.034900
      3 C3           1.3820     0.0000     0.0000 ca         1 8CV      -0.099000
      4 C4          -0.6910     0.0070     1.1970 ca         1 8CV      -0.099000
      5 C5          -1.0020     1.4420    -1.7510 c3         1 8CV       0.171800
      6 C6           2.0730     0.0000     1.1970 ca         1 8CV      -0.099500
      7 C7           0.0000     0.0080     2.3940 ca         1 8CV      -0.099500
      8 N1          -1.7350     1.4420    -3.0200 nu         1 8CV      -0.585200
      9 C8           1.3830     0.0010     2.3940 ca         1 8CV      -0.091000
     10 C9          -2.0730     2.6310    -3.6190 c2         1 8CV       0.494100
     11 N2          -2.6590     2.6340    -4.8680 nu         1 8CV      -0.240200
     12 N3          -1.8410     3.7580    -3.0060 n2         1 8CV      -0.767100
     13 C10         -3.0060     1.4420    -5.4690 c2         1 8CV       0.245100
     14 N4          -2.6790     0.3110    -4.9100 n2         1 8CV      -0.619100
     15 N5          -3.6980     1.4470    -6.6560 nz         1 8CV       0.124400
     16 H1          -0.1710    -0.5160    -2.0590 hc         1 8CV       0.020200
     17 H2          -1.7030    -0.5060    -1.1740 hc         1 8CV       0.020200
     18 H3           1.9230    -0.0280    -0.9380 ha         1 8CV       0.108500
     19 H4          -1.7410    -0.0840     1.4490 ha         1 8CV       0.108500
     20 H5          -0.0530     1.9480    -1.8830 h1         1 8CV       0.025700
     21 H6          -1.5840     1.9580    -0.9970 h1         1 8CV       0.025700
     22 H7           3.1570     0.0030     1.1970 ha         1 8CV       0.109500
     23 H8          -0.4930     0.0110     3.3590 ha         1 8CV       0.109500
     24 H9          -2.0090     0.5750    -3.4380 hn         1 8CV       0.361800
     25 H10          1.9340     0.0040     3.3260 ha         1 8CV       0.110000
     26 H11         -2.8010     3.4980    -5.3520 hn         1 8CV       0.303800
     27 H12         -1.4160     3.7570    -2.1000 hn         1 8CV       0.370400
     28 H13         -2.9300    -0.5540    -5.3450 hn         1 8CV       0.352400
     29 H14         -3.0610     1.5980    -7.4130 hn         1 8CV       0.231467
     30 H15         -4.3800     2.1790    -6.6420 hn         1 8CV       0.231467
     31 H53         -4.1580     0.5660    -6.7780 hn         1 8CV       0.231467
@<TRIPOS>BOND
     1     1     2 1   
     2     1     3 ar  
     3     1     4 ar  
     4     2     5 1   
     5     2    16 1   
     6     2    17 1   
     7     3     6 ar  
     8     3    18 1   
     9     4     7 ar  
    10     4    19 1   
    11     5     8 1   
    12     5    20 1   
    13     5    21 1   
    14     6     9 ar  
    15     6    22 1   
    16     7     9 ar  
    17     7    23 1   
    18     8    10 1   
    19     8    24 1   
    20     9    25 1   
    21    10    11 1   
    22    10    12 2   
    23    11    13 1   
    24    11    26 1   
    25    12    27 1   
    26    13    14 2   
    27    13    15 1   
    28    14    28 1   
    29    15    29 1   
    30    15    30 1   
    31    15    31 1   
@<TRIPOS>SUBSTRUCTURE
     1 8CV         1 TEMP              0 ****  ****    0 ROOT
