@<TRIPOS>MOLECULE
molecule
   56    58     1     0     0
SMALL
bcc


@<TRIPOS>ATOM
      1 C1           0.0000     0.0000     0.0000 c3         1 8CX       0.140400
      2 O1           1.4290     0.0000     0.0000 os         1 8CX      -0.407600
      3 C2          -0.5090     0.0010    -1.4430 c3         1 8CX       0.159800
      4 N2          -0.1200    -1.2540    -2.1000 n7         1 8CX      -0.798200
      5 C3          -0.5950    -1.2900    -3.4900 c3         1 8CX       0.128800
      6 C4          -0.1720    -2.6080    -4.1390 c3         1 8CX       0.227900
      7 F5           1.2230    -2.7120    -4.1190 f          1 8CX      -0.224300
      8 N1'          3.5440    -1.3790     2.5260 n7         1 8CX      -0.792200
      9 C11         -0.6580    -2.6450    -5.5660 ca         1 8CX      -0.103300
     10 C12         -0.1550    -1.7480    -6.4900 ca         1 8CX      -0.142000
     11 C13         -0.6010    -1.7820    -7.7990 ca         1 8CX       0.132900
     12 F13         -0.1100    -0.9060    -8.7040 f          1 8CX      -0.138900
     13 C14         -1.5510    -2.7140    -8.1830 ca         1 8CX      -0.159000
     14 C15         -2.0520    -3.6090    -7.2580 ca         1 8CX      -0.105000
     15 C16         -1.6020    -3.5780    -5.9510 ca         1 8CX      -0.128000
     16 N1A          5.2030     2.8980     0.6620 nb         1 8CX      -0.757000
     17 C2'          2.2610    -1.4470     1.7800 c3         1 8CX       0.109800
     18 C2A          5.0520     1.8610    -0.1390 ca         1 8CX       0.464600
     19 C3'          2.0110     0.0000     1.3060 c3         1 8CX       0.136100
     20 C3A          6.0770     1.4520    -0.9690 ca         1 8CX      -0.294300
     21 C4'          3.4040     0.6590     1.2720 c3         1 8CX      -0.060700
     22 C4A          7.2800     2.1440    -0.9550 ca         1 8CX      -0.018300
     23 C5'          4.3810    -0.4460     1.7290 c3         1 8CX       0.138800
     24 C5A          7.4080     3.2280    -0.1040 ca         1 8CX      -0.308300
     25 C6A          6.3340     3.5840     0.7040 ca         1 8CX       0.699200
     26 N6A          6.4490     4.6710     1.5630 nv         1 8CX      -1.038500
     27 C7A          3.7430     1.1130    -0.1490 c3         1 8CX      -0.111700
     28 C8A          8.4200     1.7250    -1.8470 c3         1 8CX      -0.049800
     29 H1          -0.3610    -0.8850     0.5100 h1         1 8CX       0.025200
     30 H1A         -0.3610     0.8840     0.5110 h1         1 8CX       0.025200
     31 H2          -0.0770     0.8380    -1.9780 h1         1 8CX       0.042700
     32 H2A         -1.5890     0.0900    -1.4440 h1         1 8CX       0.042700
     33 HN2         -0.5060    -2.0280    -1.5960 hn         1 8CX       0.349800
     34 H3          -1.6750    -1.2090    -3.5060 h1         1 8CX       0.046700
     35 H3A         -0.1630    -0.4620    -4.0400 h1         1 8CX       0.046700
     36 H4          -0.6040    -3.4360    -3.5890 h1         1 8CX       0.055700
     37 HN1'         3.9710    -2.2840     2.5370 hn         1 8CX       0.346800
     38 H12          0.5680    -1.0020    -6.1830 ha         1 8CX       0.156000
     39 H14         -1.9010    -2.7400    -9.2080 ha         1 8CX       0.147000
     40 H15         -2.7930    -4.3400    -7.5580 ha         1 8CX       0.139000
     41 H16         -1.9950    -4.2800    -5.2260 ha         1 8CX       0.134000
     42 H2'          1.4620    -1.7720     2.4350 h1         1 8CX       0.047200
     43 H2'A         2.3550    -2.1110     0.9290 h1         1 8CX       0.047200
     44 H3'          1.3700     0.5180     2.0090 h1         1 8CX       0.047700
     45 H3AA         5.9440     0.5990    -1.6230 ha         1 8CX       0.139000
     46 H4'          3.4390     1.4960     1.9590 hc         1 8CX       0.085700
     47 H5'          5.1650    -0.0240     2.3450 h1         1 8CX       0.045200
     48 H5'A         4.8000    -0.9570     0.8700 h1         1 8CX       0.045200
     49 H5A          8.3330     3.7910    -0.0680 ha         1 8CX       0.135000
     50 HN6A         7.3050     4.8290     2.0580 hn         1 8CX       0.435800
     51 HN6B         5.6640     5.2710     1.7190 hn         1 8CX       0.435800
     52 H7A          3.8280     0.2470    -0.7950 hc         1 8CX       0.069200
     53 H7AA         2.9590     1.7630    -0.5170 hc         1 8CX       0.069200
     54 H8A          8.5230     0.6470    -1.8200 hc         1 8CX       0.046367
     55 H8AA         8.2200     2.0440    -2.8630 hc         1 8CX       0.046367
     56 H8AB         9.3380     2.1840    -1.5000 hc         1 8CX       0.046367
@<TRIPOS>BOND
     1     3     1 1
     2     1     2 1
     3     1    29 1
     4     1    30 1
     5     2    19 1
     6     3     4 1
     7     3    31 1
     8     3    32 1
     9     5     4 1
    10     4    33 1
    11     5     6 1
    12     5    34 1
    13     5    35 1
    14     9     6 1
    15     6     7 1
    16     6    36 1
    17    17     8 1
    18    23     8 1
    19     8    37 1
    20    10     9 ar
    21     9    15 ar
    22    11    10 ar
    23    10    38 1
    24    12    11 1
    25    11    13 ar
    26    13    14 ar
    27    13    39 1
    28    14    15 ar
    29    14    40 1
    30    15    41 1
    31    16    18 ar
    32    16    25 ar
    33    19    17 1
    34    17    42 1
    35    17    43 1
    36    27    18 1
    37    18    20 ar
    38    19    21 1
    39    19    44 1
    40    20    22 ar
    41    20    45 1
    42    27    21 1
    43    21    23 1
    44    21    46 1
    45    24    22 ar
    46    22    28 1
    47    23    47 1
    48    23    48 1
    49    25    24 ar
    50    24    49 1
    51    26    25 1
    52    26    50 1
    53    26    51 1
    54    27    52 1
    55    27    53 1
    56    28    54 1
    57    28    55 1
    58    28    56 1
@<TRIPOS>SUBSTRUCTURE
     1 8CX         1 TEMP              0 ****  ****    0 ROOT
