@<TRIPOS>MOLECULE
8D0
   71    74     1     0     0
SMALL
bcc


@<TRIPOS>ATOM
      1 C1           0.0000     0.0000     0.0000 c2         1 8D0      -0.182000
      2 C2           1.3800     0.0000     0.0000 c2         1 8D0       0.000000
      3 C3           2.0730     0.0000     1.1950 c2         1 8D0      -0.209000
      4 C4           1.3800     0.0050     2.3950 c3         1 8D0       0.133000
      5 C5          -0.0090     0.0100     2.3990 c2         1 8D0      -0.300000
      6 N1          10.3800    -0.0040    -4.1850 nz         1 8D0       0.858000
      7 C10         -0.0520    -0.8100     4.7720 c3         1 8D0      -0.174000
      8 C11         -0.8310    -0.6790     6.0850 c3         1 8D0      -0.060000
      9 C12         -2.2740    -1.1450     5.8930 c3         1 8D0      -0.253000
     10 C13         -2.9540    -0.3220     4.7920 c3         1 8D0      -0.055000
     11 C14         -0.1610    -1.5360     7.1600 c3         1 8D0       0.033000
     12 C17          2.1320    -0.0000    -1.3060 c3         1 8D0      -0.018000
     13 C18          3.6360    -0.0010    -1.0280 c3         1 8D0      -0.109000
     14 C19          1.7610    -1.2510    -2.1070 c3         1 8D0      -0.118000
     15 C20          1.7620     1.2480    -2.1090 c3         1 8D0      -0.118000
     16 C21          4.4000    -0.0020    -2.3550 c3         1 8D0      -0.122000
     17 C22          5.9040    -0.0020    -2.0770 c3         1 8D0      -0.104000
     18 C23          6.6670    -0.0030    -3.4030 c3         1 8D0      -0.097000
     19 C24          8.1720    -0.0030    -3.1260 c3         1 8D0      -0.116000
     20 C25          8.9350    -0.0030    -4.4520 c3         1 8D0      -0.291000
     21 C6          -0.7040     0.0020     1.2000 c2         1 8D0       0.186000
     22 C7          -0.7450     0.0360     3.7070 c3         1 8D0      -0.040000
     23 C8          -2.1660    -0.4950     3.4970 c3         1 8D0      -0.118000
     24 C9          -2.7980     0.2800     2.3430 c3         1 8D0       0.092000
     25 O1          -2.0620    -0.0120     1.1530 os         1 8D0      -0.178000
     26 O2          -0.8130    -1.3240     8.4130 oh         1 8D0      -0.317000
     27 O3           2.0600     0.0040     3.5710 oh         1 8D0      -0.325000
     28 H1          -0.5380     0.0000    -0.9400 ha         1 8D0       0.130000
     29 H2           3.1570    -0.0000     1.1930 ha         1 8D0       0.133000
     30 H3          10.8790    -0.0040    -5.0530 hn         1 8D0       0.018667
     31 H4          10.6220     0.8140    -3.6610 hn         1 8D0       0.018667
     32 H6          -0.0430    -1.8470     4.4570 hc         1 8D0       0.094500
     33 H7           0.9620    -0.4570     4.9110 hc         1 8D0       0.094500
     34 H8          -0.8310     0.3600     6.3950 hc         1 8D0       0.052000
     35 H9          -2.8350    -1.6940     6.6400 hc         1 8D0       0.101000
     36 H10         -2.1100    -0.1780     6.3540 hc         1 8D0       0.101000
     37 H11         -3.9660    -0.6780     4.6480 hc         1 8D0       0.059500
     38 H12         -2.9640     0.7250     5.0730 hc         1 8D0       0.059500
     39 H13          0.8820    -1.2550     7.2440 h1         1 8D0       0.054500
     40 H14         -0.2350    -2.5810     6.8850 h1         1 8D0       0.054500
     41 H15         -3.2660     1.9980     3.5470 hc         1 8D0       0.059667
     42 H16         -1.6970     2.0860     2.7390 hc         1 8D0       0.059667
     43 H17         -3.1800     2.3260     1.8090 hc         1 8D0       0.059667
     44 H18         -4.3290    -1.2260     2.2410 hc         1 8D0       0.059667
     45 H19         -4.6140     0.1740     1.1980 hc         1 8D0       0.059667
     46 H20         -4.8610     0.3060     2.9460 hc         1 8D0       0.059667
     47 H21          3.8990     0.8840    -0.4610 hc         1 8D0       0.068000
     48 H22          3.8990    -0.8850    -0.4600 hc         1 8D0       0.068000
     49 H23          0.6840    -1.3630    -2.1230 hc         1 8D0       0.050333
     50 H24          2.2060    -2.1230    -1.6440 hc         1 8D0       0.050333
     51 H25          2.1310    -1.1520    -3.1210 hc         1 8D0       0.050333
     52 H26          2.1990     2.1220    -1.6420 hc         1 8D0       0.050333
     53 H27          0.6840     1.3550    -2.1330 hc         1 8D0       0.050333
     54 H28          2.1390     1.1510    -3.1200 hc         1 8D0       0.050333
     55 H29          4.1380     0.8830    -2.9230 hc         1 8D0       0.067000
     56 H30          4.1380    -0.8870    -2.9210 hc         1 8D0       0.067000
     57 H31          6.1650     0.8830    -1.5100 hc         1 8D0       0.060000
     58 H32          6.1650    -0.8860    -1.5090 hc         1 8D0       0.060000
     59 H33          6.4040     0.8810    -3.9700 hc         1 8D0       0.067000
     60 H34          6.4030    -0.8880    -3.9690 hc         1 8D0       0.067000
     61 H35          8.4330     0.8820    -2.5580 hc         1 8D0       0.074000
     62 H36          8.4330    -0.8880    -2.5580 hc         1 8D0       0.074000
     63 H37          8.6720    -0.8880    -5.0180 hx         1 8D0       0.125000
     64 H38          8.6720     0.8820    -5.0180 hx         1 8D0       0.125000
     65 H39         -0.8000     1.0600     4.0560 hc         1 8D0       0.087000
     66 H40         -2.1040    -1.5390     3.2160 hc         1 8D0       0.100000
     67 H41         -0.8980    -0.5240     7.9220 ho         1 8D0       0.211000
     68 H42          1.1240    -0.1060     3.5550 DU         1 8D0       0.312000
     69 C15         -2.7310     1.7820     2.6300 c3         1 8D0      -0.139000
     70 C16         -4.2570    -0.1470     2.1690 c3         1 8D0      -0.139000
     71 H131        10.6210    -0.8200    -3.6580 hn         1 8D0       0.018667
@<TRIPOS>BOND
     1     1     2 1   
     2     1    21 1   
     3     1    28 1   
     4     2     3 1   
     5     2    12 1   
     6     3     4 1   
     7     3    29 1   
     8     4     5 1   
     9     4    27 1   
    10     4    68 1   
    11     5    21 1   
    12     5    22 1   
    13     6    20 1   
    14     6    30 1   
    15     6    31 1   
    16     6    71 1   
    17     7     8 1   
    18     7    22 1   
    19     7    32 1   
    20     7    33 1   
    21     8     9 1   
    22     8    11 1   
    23     8    34 1   
    24     9    10 1   
    25     9    35 1   
    26     9    36 1   
    27    10    23 1   
    28    10    37 1   
    29    10    38 1   
    30    11    26 1   
    31    11    39 1   
    32    11    40 1   
    33    12    13 1   
    34    12    14 1   
    35    12    15 1   
    36    13    16 1   
    37    13    47 1   
    38    13    48 1   
    39    14    49 1   
    40    14    50 1   
    41    14    51 1   
    42    15    52 1   
    43    15    53 1   
    44    15    54 1   
    45    16    17 1   
    46    16    55 1   
    47    16    56 1   
    48    17    18 1   
    49    17    57 1   
    50    17    58 1   
    51    18    19 1   
    52    18    59 1   
    53    18    60 1   
    54    19    20 1   
    55    19    61 1   
    56    19    62 1   
    57    20    63 1   
    58    20    64 1   
    59    21    25 1   
    60    22    23 1   
    61    22    65 1   
    62    23    24 1   
    63    23    66 1   
    64    24    25 1   
    65    24    69 1   
    66    24    70 1   
    67    26    67 1   
    68    27    68 1   
    69    41    69 1   
    70    42    69 1   
    71    43    69 1   
    72    44    70 1   
    73    45    70 1   
    74    46    70 1   
@<TRIPOS>SUBSTRUCTURE
     1 8D0         1 TEMP              0 ****  ****    0 ROOT
