@<TRIPOS>MOLECULE
molecule
   71    73     1     0     0
SMALL
bcc


@<TRIPOS>ATOM
      1 C1           0.0000     0.0000     0.0000 ca         1 8D0      -0.188000
      2 C2           1.3800     0.0000     0.0000 ca         1 8D0      -0.012300
      3 C3           2.0730     0.0000     1.1950 ca         1 8D0      -0.208000
      4 C4           1.3800     0.0050     2.3950 ca         1 8D0       0.140100
      5 C5          -0.0090     0.0100     2.3990 ca         1 8D0      -0.279300
      6 N1          10.3800    -0.0040    -4.1850 nz         1 8D0      -0.811600
      7 C10         -0.0520    -0.8100     4.7720 c3         1 8D0      -0.114400
      8 C11         -0.8310    -0.6790     6.0850 c3         1 8D0      -0.061700
      9 C12         -2.2740    -1.1450     5.8930 c3         1 8D0      -0.204400
     10 C13         -2.9540    -0.3220     4.7920 c3         1 8D0      -0.039400
     11 C14         -0.1610    -1.5360     7.1600 c3         1 8D0       0.100400
     12 C17          2.1320    -0.0000    -1.3060 c3         1 8D0      -0.018700
     13 C18          3.6360    -0.0010    -1.0280 c3         1 8D0      -0.072400
     14 C19          1.7610    -1.2510    -2.1070 c3         1 8D0      -0.082100
     15 C20          1.7620     1.2480    -2.1090 c3         1 8D0      -0.082100
     16 C21          4.4000    -0.0020    -2.3550 c3         1 8D0      -0.085400
     17 C22          5.9040    -0.0020    -2.0770 c3         1 8D0      -0.080400
     18 C23          6.6670    -0.0030    -3.4030 c3         1 8D0      -0.075400
     19 C24          8.1720    -0.0030    -3.1260 c3         1 8D0      -0.113400
     20 C25          8.9350    -0.0030    -4.4520 c3         1 8D0       0.089800
     21 C6          -0.7040     0.0020     1.2000 ca         1 8D0       0.210100
     22 C7          -0.7450     0.0360     3.7070 c3         1 8D0      -0.034400
     23 C8          -2.1660    -0.4950     3.4970 c3         1 8D0      -0.086700
     24 C9          -2.7980     0.2800     2.3430 c3         1 8D0       0.153800
     25 O1          -2.0620    -0.0120     1.1530 os         1 8D0      -0.318900
     26 O2          -0.8130    -1.3240     8.4130 oh         1 8D0      -0.572800
     27 O3           2.0600     0.0040     3.5710 oh         1 8D0      -0.533100
     28 H1          -0.5380     0.0000    -0.9400 ha         1 8D0       0.149000
     29 H2           3.1570    -0.0000     1.1930 ha         1 8D0       0.145000
     30 H3          10.8790    -0.0040    -5.0530 hn         1 8D0       0.456800
     31 H4          10.6220     0.8140    -3.6610 hn         1 8D0       0.456800
     32 H6          -0.0430    -1.8470     4.4570 hc         1 8D0       0.073700
     33 H7           0.9620    -0.4570     4.9110 hc         1 8D0       0.073700
     34 H8          -0.8310     0.3600     6.3950 hc         1 8D0       0.029700
     35 H9          -2.8350    -1.6940     6.6400 hc         1 8D0       0.086700
     36 H10         -2.1100    -0.1780     6.3540 hc         1 8D0       0.086700
     37 H11         -3.9660    -0.6780     4.6480 hc         1 8D0       0.046200
     38 H12         -2.9640     0.7250     5.0730 hc         1 8D0       0.046200
     39 H13          0.8820    -1.2550     7.2440 h1         1 8D0       0.054200
     40 H14         -0.2350    -2.5810     6.8850 h1         1 8D0       0.054200
     41 H15         -3.2660     1.9980     3.5470 hc         1 8D0       0.050533
     42 H16         -1.6970     2.0860     2.7390 hc         1 8D0       0.050533
     43 H17         -3.1800     2.3260     1.8090 hc         1 8D0       0.050533
     44 H18         -4.3290    -1.2260     2.2410 hc         1 8D0       0.050533
     45 H19         -4.6140     0.1740     1.1980 hc         1 8D0       0.050533
     46 H20         -4.8610     0.3060     2.9460 hc         1 8D0       0.050533
     47 H21          3.8990     0.8840    -0.4610 hc         1 8D0       0.051700
     48 H22          3.8990    -0.8850    -0.4600 hc         1 8D0       0.051700
     49 H23          0.6840    -1.3630    -2.1230 hc         1 8D0       0.040533
     50 H24          2.2060    -2.1230    -1.6440 hc         1 8D0       0.040533
     51 H25          2.1310    -1.1520    -3.1210 hc         1 8D0       0.040533
     52 H26          2.1990     2.1220    -1.6420 hc         1 8D0       0.040533
     53 H27          0.6840     1.3550    -2.1330 hc         1 8D0       0.040533
     54 H28          2.1390     1.1510    -3.1200 hc         1 8D0       0.040533
     55 H29          4.1380     0.8830    -2.9230 hc         1 8D0       0.050700
     56 H30          4.1380    -0.8870    -2.9210 hc         1 8D0       0.050700
     57 H31          6.1650     0.8830    -1.5100 hc         1 8D0       0.049700
     58 H32          6.1650    -0.8860    -1.5090 hc         1 8D0       0.049700
     59 H33          6.4040     0.8810    -3.9700 hc         1 8D0       0.057700
     60 H34          6.4030    -0.8880    -3.9690 hc         1 8D0       0.057700
     61 H35          8.4330     0.8820    -2.5580 hc         1 8D0       0.065700
     62 H36          8.4330    -0.8880    -2.5580 hc         1 8D0       0.065700
     63 H37          8.6720    -0.8880    -5.0180 hx         1 8D0       0.112700
     64 H38          8.6720     0.8820    -5.0180 hx         1 8D0       0.112700
     65 H39         -0.8000     1.0600     4.0560 hc         1 8D0       0.065700
     66 H40         -2.1040    -1.5390     3.2160 hc         1 8D0       0.081700
     67 H41         -0.8980    -0.5240     7.9220 ho         1 8D0       0.402000
     68 H42          1.1240    -0.1060     3.5550 ho         1 8D0       0.489000
     69 C15         -2.7310     1.7820     2.6300 c3         1 8D0      -0.099100
     70 C16         -4.2570    -0.1470     2.1690 c3         1 8D0      -0.099100
     71 H131        10.6210    -0.8200    -3.6580 hn         1 8D0       0.456800
@<TRIPOS>BOND
     1    18    19 1
     2    18    17 1
     3    19    20 1
     4    14    12 1
     5    17    16 1
     6    13    16 1
     7    13    12 1
     8    20     6 1
     9    12    15 1
    10    12     2 1
    11     3     2 ar
    12     3     4 ar
    13    27     4 1
    14     2     1 ar
    15     4     5 ar
    16    26    11 1
    17     1    21 ar
    18     5    21 ar
    19     5    22 1
    20     7    22 1
    21     7     8 1
    22    21    25 1
    23    11     8 1
    24    22    23 1
    25     8     9 1
    26    25    24 1
    27    23    24 1
    28    23    10 1
    29     9    10 1
    30    24    69 1
    31    24    70 1
    32     1    28 1
    33     3    29 1
    34     6    30 1
    35     6    31 1
    36     7    32 1
    37     7    33 1
    38     8    34 1
    39     9    35 1
    40     9    36 1
    41    10    37 1
    42    10    38 1
    43    11    39 1
    44    11    40 1
    45    69    41 1
    46    69    42 1
    47    69    43 1
    48    70    44 1
    49    70    45 1
    50    70    46 1
    51    13    47 1
    52    13    48 1
    53    14    49 1
    54    14    50 1
    55    14    51 1
    56    15    52 1
    57    15    53 1
    58    15    54 1
    59    16    55 1
    60    16    56 1
    61    17    57 1
    62    17    58 1
    63    18    59 1
    64    18    60 1
    65    19    61 1
    66    19    62 1
    67    20    63 1
    68    20    64 1
    69    22    65 1
    70    23    66 1
    71    26    67 1
    72    27    68 1
    73    71     6 1
@<TRIPOS>SUBSTRUCTURE
     1 8D0         1 TEMP              0 ****  ****    0 ROOT
