@<TRIPOS>MOLECULE
8D1
   45    47     1     0     0
SMALL
bcc


@<TRIPOS>ATOM
      1 C11          0.0000     0.0000     0.0000 ce         1 8D1       0.440200
      2 C13          1.4780     0.0000     0.0000 cc         1 8D1       0.071700
      3 C16          4.5920    -0.0080    -1.5660 ca         1 8D1      -0.142200
      4 C17          4.4000    -0.0160    -2.9410 ca         1 8D1      -0.098000
      5 C18          5.4900    -0.0150    -3.7900 ca         1 8D1      -0.085000
      6 C19          6.7710    -0.0070    -3.2710 ca         1 8D1      -0.096000
      7 C20          6.9660     0.0010    -1.9020 ca         1 8D1      -0.079300
      8 C21          8.3640     0.0110    -1.3410 c3         1 8D1       0.064200
      9 C22          5.8800     0.0000    -1.0480 ca         1 8D1      -0.089000
     10 C24          2.3100     0.0000     1.1400 cc         1 8D1       0.397900
     11 C01         -2.0930     4.4860     2.4600 c3         1 8D1       0.242700
     12 C03         -2.6040     2.1980     2.8540 ca         1 8D1       0.161100
     13 C04         -3.0680     2.5750     4.1060 ca         1 8D1      -0.213000
     14 C05         -3.5720     1.6220     4.9710 ca         1 8D1      -0.051000
     15 C06         -3.6140     0.2940     4.5880 ca         1 8D1      -0.149000
     16 C07         -3.1530    -0.0850     3.3410 ca         1 8D1      -0.048000
     17 C08         -2.6530     0.8640     2.4710 ca         1 8D1      -0.160300
     18 C09         -2.1510     0.4510     1.1120 c3         1 8D1       0.246100
     19 N10         -0.6890     0.3630     1.1370 nu         1 8D1      -0.489200
     20 N12         -0.6530    -0.3400    -1.0770 n2         1 8D1      -0.777100
     21 N14          2.2550    -0.0060    -1.0680 nd         1 8D1      -0.561800
     22 N15          3.4880    -0.0030    -0.7030 na         1 8D1       0.784800
     23 N23          3.5510     0.0000     0.6970 nd         1 8D1      -0.714800
     24 N25          1.8990     0.0010     2.4730 nv         1 8D1      -0.553500
     25 H1           3.3960    -0.0230    -3.3480 ha         1 8D1       0.130000
     26 H2           5.3410    -0.0220    -4.8630 ha         1 8D1       0.108000
     27 H3           7.6250    -0.0070    -3.9380 ha         1 8D1       0.109000
     28 H4           8.5120    -0.8670    -0.7230 hc         1 8D1       0.009700
     29 H5           8.5070     0.9010    -0.7410 hc         1 8D1       0.009700
     30 H6           9.0800     0.0040    -2.1540 hc         1 8D1       0.009700
     31 H7           6.0340     0.0070     0.0240 ha         1 8D1       0.135000
     32 H8          -3.1050     4.8020     2.6830 h1         1 8D1      -0.001633
     33 H9          -1.7020     5.0770     1.6410 h1         1 8D1      -0.001633
     34 H10         -1.4710     4.6250     3.3360 h1         1 8D1      -0.001633
     35 H11         -3.0350     3.6150     4.4050 ha         1 8D1       0.121000
     36 H12         -3.9340     1.9160     5.9480 ha         1 8D1       0.101000
     37 H13         -4.0080    -0.4520     5.2680 ha         1 8D1       0.107000
     38 H14         -3.1900    -1.1260     3.0440 ha         1 8D1       0.109000
     39 H15         -2.5670    -0.5150     0.8520 h1         1 8D1       0.030200
     40 H16         -2.4560     1.1850     0.3760 h1         1 8D1       0.030200
     41 H17         -0.1890     0.5740     1.9780 hn         1 8D1       0.297800
     42 H18         -0.1530    -0.6020    -1.9030 hn         1 8D1       0.338400
     43 H19          2.3630     0.5860     3.1380 hn         1 8D1       0.277300
     44 H20          1.1860    -0.6340     2.7760 hn         1 8D1       0.277300
     45 O02         -2.1070     3.1320     2.0010 os         1 8D1      -0.299900
@<TRIPOS>BOND
     1     1     2 1   
     2     1    19 1   
     3     1    20 2   
     4     2    10 1   
     5     2    21 2   
     6     3     4 ar  
     7     3     9 ar  
     8     3    22 1   
     9     4     5 ar  
    10     4    25 1   
    11     5     6 ar  
    12     5    26 1   
    13     6     7 ar  
    14     6    27 1   
    15     7     8 1   
    16     7     9 ar  
    17     8    28 1   
    18     8    29 1   
    19     8    30 1   
    20     9    31 1   
    21    10    23 2   
    22    10    24 1   
    23    11    32 1   
    24    11    33 1   
    25    11    34 1   
    26    11    45 1   
    27    12    13 ar  
    28    12    17 ar  
    29    12    45 1   
    30    13    14 ar  
    31    13    35 1   
    32    14    15 ar  
    33    14    36 1   
    34    15    16 ar  
    35    15    37 1   
    36    16    17 ar  
    37    16    38 1   
    38    17    18 1   
    39    18    19 1   
    40    18    39 1   
    41    18    40 1   
    42    19    41 1   
    43    20    42 1   
    44    21    22 1   
    45    22    23 1   
    46    24    43 1   
    47    24    44 1   
@<TRIPOS>SUBSTRUCTURE
     1 8D1         1 TEMP              0 ****  ****    0 ROOT
