@<TRIPOS>MOLECULE
molecule
   45    47     1     0     0
SMALL
bcc


@<TRIPOS>ATOM
      1 C11          0.0000     0.0000     0.0000 ce         1 8D1       0.617200
      2 C13          1.4780     0.0000     0.0000 cc         1 8D1       0.142700
      3 C16          4.5920    -0.0080    -1.5660 ca         1 8D1       0.050800
      4 C17          4.4000    -0.0160    -2.9410 ca         1 8D1      -0.132000
      5 C18          5.4900    -0.0150    -3.7900 ca         1 8D1      -0.112000
      6 C19          6.7710    -0.0070    -3.2710 ca         1 8D1      -0.134000
      7 C20          6.9660     0.0010    -1.9020 ca         1 8D1      -0.071300
      8 C21          8.3640     0.0110    -1.3410 c3         1 8D1      -0.046800
      9 C22          5.8800     0.0000    -1.0480 ca         1 8D1      -0.128000
     10 C24          2.3100     0.0000     1.1400 cc         1 8D1       0.514900
     11 C01         -2.0930     4.4860     2.4600 c3         1 8D1       0.127700
     12 C03         -2.6040     2.1980     2.8540 ca         1 8D1       0.155100
     13 C04         -3.0680     2.5750     4.1060 ca         1 8D1      -0.224000
     14 C05         -3.5720     1.6220     4.9710 ca         1 8D1      -0.081000
     15 C06         -3.6140     0.2940     4.5880 ca         1 8D1      -0.171000
     16 C07         -3.1530    -0.0850     3.3410 ca         1 8D1      -0.078000
     17 C08         -2.6530     0.8640     2.4710 ca         1 8D1      -0.145300
     18 C09         -2.1510     0.4510     1.1120 c3         1 8D1       0.292100
     19 N10         -0.6890     0.3630     1.1370 nu         1 8D1      -0.928200
     20 N12         -0.6530    -0.3400    -1.0770 n2         1 8D1      -0.870100
     21 N14          2.2550    -0.0060    -1.0680 nd         1 8D1      -0.421800
     22 N15          3.4880    -0.0030    -0.7030 na         1 8D1       0.335800
     23 N23          3.5510     0.0000     0.6970 nd         1 8D1      -0.565800
     24 N25          1.8990     0.0010     2.4730 nv         1 8D1      -1.029500
     25 H1           3.3960    -0.0230    -3.3480 ha         1 8D1       0.163000
     26 H2           5.3410    -0.0220    -4.8630 ha         1 8D1       0.138000
     27 H3           7.6250    -0.0070    -3.9380 ha         1 8D1       0.133000
     28 H4           8.4340    -0.7070    -0.5320 hc         1 8D1       0.045700
     29 H5           8.5970     1.0000    -0.9660 hc         1 8D1       0.045700
     30 H6           9.0680    -0.2550    -2.1200 hc         1 8D1       0.045700
     31 H7           6.0340     0.0070     0.0240 ha         1 8D1       0.158000
     32 H8          -1.4880     4.5580     3.3550 h1         1 8D1       0.043367
     33 H9          -3.1040     4.8060     2.6810 h1         1 8D1       0.043367
     34 H10         -1.6740     5.1200     1.6890 h1         1 8D1       0.043367
     35 H11         -3.0350     3.6150     4.4050 ha         1 8D1       0.138000
     36 H12         -3.9340     1.9160     5.9480 ha         1 8D1       0.133000
     37 H13         -4.0080    -0.4520     5.2680 ha         1 8D1       0.134000
     38 H14         -3.1900    -1.1260     3.0440 ha         1 8D1       0.139000
     39 H15         -2.4560     1.1860     0.3760 h1         1 8D1       0.049200
     40 H16         -2.5670    -0.5140     0.8510 h1         1 8D1       0.049200
     41 H17         -0.1890     0.5820     1.9760 hn         1 8D1       0.438800
     42 H18         -1.6540    -0.3380    -1.0770 hn         1 8D1       0.392400
     43 H19          1.1650    -0.6110     2.7700 hn         1 8D1       0.445300
     44 H20          2.3630     0.5860     3.1390 hn         1 8D1       0.445300
     45 O02         -2.1070     3.1320     2.0010 os         1 8D1      -0.320900
@<TRIPOS>BOND
     1    15    14 ar  
     2    15    16 ar  
     3    14    13 ar  
     4    16    17 ar  
     5    13    12 ar  
     6    17    12 ar  
     7    17    18 1   
     8    20     1 2   
     9    12    45 1   
    10    18    19 1   
    11     1    19 1   
    12     1     2 1   
    13     8     7 1   
    14    11    45 1   
    15    21     2 2   
    16    21    22 1   
    17     2    10 1   
    18     9     7 ar  
    19     9     3 ar  
    20     7     6 ar  
    21    22     3 1   
    22    22    23 1   
    23     3     4 ar  
    24    10    23 2   
    25    10    24 1   
    26     6     5 ar  
    27     4     5 ar  
    28     4    25 1   
    29     5    26 1   
    30     6    27 1   
    31     8    28 1   
    32     8    29 1   
    33     8    30 1   
    34     9    31 1   
    35    11    32 1   
    36    11    33 1   
    37    11    34 1   
    38    13    35 1   
    39    14    36 1   
    40    15    37 1   
    41    16    38 1   
    42    18    39 1   
    43    18    40 1   
    44    19    41 1   
    45    20    42 1   
    46    24    43 1   
    47    24    44 1   
@<TRIPOS>SUBSTRUCTURE
     1 8D1         1 TEMP              0 ****  ****    0 ROOT
