@<TRIPOS>MOLECULE
molecule
   65    67     1     0     0
SMALL
bcc


@<TRIPOS>ATOM
      1 C1           0.0000     0.0000     0.0000 ca         1 8D3       0.155100
      2 O1          -0.6770     0.0050    -1.1790 oh         1 8D3      -0.509100
      3 O2          -0.6490     0.0210     3.5970 os         1 8D3      -0.321900
      4 C2           1.3870     0.0000     0.0000 ca         1 8D3      -0.233000
      5 C3           2.0740     0.0000     1.1990 ca         1 8D3      -0.014300
      6 C5          -0.7000     0.0020     1.1990 ca         1 8D3      -0.184300
      7 C6          -2.0410    -0.3030     3.6290 c3         1 8D3       0.155800
      8 C4           1.3820     0.0040     2.3930 ca         1 8D3      -0.181000
      9 C10         -4.8770     0.7820     1.3030 c2         1 8D3      -0.189200
     10 C11         -4.2160     1.0900     0.2310 c2         1 8D3      -0.119400
     11 C12         -2.7280     0.9350     0.0840 c3         1 8D3      -0.031200
     12 C13         -2.2030    -0.0050     1.1700 c3         1 8D3      -0.006400
     13 C14         -2.6290     0.0800     4.9890 c3         1 8D3      -0.099100
     14 C15         -2.2270    -1.8040     3.3920 c3         1 8D3      -0.099100
     15 C16         -4.9880     1.6360    -0.9410 c3         1 8D3      -0.056900
     16 C17          3.5820    -0.0040     1.2020 c3         1 8D3      -0.020700
     17 C18          4.0940    -0.0070    -0.2400 c3         1 8D3      -0.072400
     18 C19          4.0930     1.2460     1.9220 c3         1 8D3      -0.081100
     19 C20          4.0870    -1.2520     1.9270 c3         1 8D3      -0.081100
     20 C21          5.6240    -0.0100    -0.2360 c3         1 8D3      -0.086400
     21 C22          6.1380    -0.0150    -1.6780 c3         1 8D3      -0.080400
     22 C23          7.6670    -0.0180    -1.6750 c3         1 8D3      -0.083400
     23 C24          8.1810    -0.0220    -3.1160 c3         1 8D3      -0.084400
     24 C25          9.7100    -0.0260    -3.1130 c3         1 8D3       0.006000
     25 C7          -0.0100     0.0020     2.4000 ca         1 8D3       0.180100
     26 C8          -2.7420     0.4850     2.5220 c3         1 8D3      -0.095700
     27 C9          -4.2490     0.2240     2.5500 c3         1 8D3      -0.034200
     28 Br1         10.3700    -0.0310    -4.9650 br         1 8D3      -0.187400
     29 H1          -0.2910    -0.6230    -1.7660 ho         1 8D3       0.416000
     30 H2           1.9300    -0.0030    -0.9370 ha         1 8D3       0.140000
     31 H3           1.9250     0.0040     3.3300 ha         1 8D3       0.146000
     32 H4          -5.9490     0.9390     1.3000 ha         1 8D3       0.118000
     33 H5          -2.2630     1.9060     0.2080 hc         1 8D3       0.071700
     34 H6          -2.5160     0.5010    -0.8850 hc         1 8D3       0.071700
     35 H7          -2.5580    -1.0110     0.9810 hc         1 8D3       0.064700
     36 H8          -2.7400     1.1560     5.0440 hc         1 8D3       0.048033
     37 H9          -3.5980    -0.3900     5.1080 hc         1 8D3       0.048033
     38 H10         -1.9660    -0.2550     5.7770 hc         1 8D3       0.048033
     39 H11         -1.8640    -2.0610     2.4040 hc         1 8D3       0.048033
     40 H12         -1.6690    -2.3590     4.1360 hc         1 8D3       0.048033
     41 H13         -3.2780    -2.0540     3.4670 hc         1 8D3       0.048033
     42 H14         -4.3140     2.1640    -1.6040 hc         1 8D3       0.040367
     43 H15         -5.7520     2.3170    -0.5850 hc         1 8D3       0.040367
     44 H16         -5.4550     0.8190    -1.4780 hc         1 8D3       0.040367
     45 H17          3.7350     0.8770    -0.7520 hc         1 8D3       0.046700
     46 H18          3.7320    -0.8920    -0.7490 hc         1 8D3       0.046700
     47 H19          3.6210     1.3210     2.8950 hc         1 8D3       0.038700
     48 H20          5.1670     1.1780     2.0460 hc         1 8D3       0.038700
     49 H21          3.8510     2.1250     1.3360 hc         1 8D3       0.038700
     50 H22          3.6220    -1.3160     2.9030 hc         1 8D3       0.038700
     51 H23          3.8350    -2.1320     1.3480 hc         1 8D3       0.038700
     52 H24          5.1630    -1.1910     2.0420 hc         1 8D3       0.038700
     53 H25          5.9830    -0.8940     0.2770 hc         1 8D3       0.045700
     54 H26          5.9860     0.8750     0.2730 hc         1 8D3       0.045700
     55 H27          5.7760    -0.9000    -2.1870 hc         1 8D3       0.043200
     56 H28          5.7800     0.8690    -2.1920 hc         1 8D3       0.043200
     57 H29          8.0250    -0.9020    -1.1610 hc         1 8D3       0.043200
     58 H30          8.0290     0.8670    -1.1650 hc         1 8D3       0.043200
     59 H31          7.8190    -0.9060    -3.6260 hc         1 8D3       0.056200
     60 H32          7.8230     0.8630    -3.6290 hc         1 8D3       0.056200
     61 H33         10.0680    -0.9100    -2.5990 h1         1 8D3       0.070700
     62 H34         10.0720     0.8590    -2.6030 h1         1 8D3       0.070700
     63 H35         -2.5460     1.5440     2.6380 hc         1 8D3       0.075700
     64 H36         -4.6820     0.7070     3.4170 hc         1 8D3       0.050200
     65 H37         -4.4290    -0.8430     2.5960 hc         1 8D3       0.050200
@<TRIPOS>BOND
     1    24    23 1   
     2    24    28 1   
     3    18    16 1   
     4    23    22 1   
     5    22    21 1   
     6    21    20 1   
     7    20    17 1   
     8    17    16 1   
     9    16    19 1   
    10    16     5 1   
    11     4     5 ar  
    12     4     1 ar  
    13     5     8 ar  
    14     2     1 1   
    15     1     6 ar  
    16     8    25 ar  
    17     6    25 ar  
    18     6    12 1   
    19    11    10 1   
    20    11    12 1   
    21    15    10 1   
    22    25     3 1   
    23    10     9 2   
    24    12    26 1   
    25     3     7 1   
    26    26     7 1   
    27    26    27 1   
    28     9    27 1   
    29     7    14 1   
    30     7    13 1   
    31     2    29 1   
    32     4    30 1   
    33     8    31 1   
    34     9    32 1   
    35    11    33 1   
    36    11    34 1   
    37    12    35 1   
    38    13    36 1   
    39    13    37 1   
    40    13    38 1   
    41    14    39 1   
    42    14    40 1   
    43    14    41 1   
    44    15    42 1   
    45    15    43 1   
    46    15    44 1   
    47    17    45 1   
    48    17    46 1   
    49    18    47 1   
    50    18    48 1   
    51    18    49 1   
    52    19    50 1   
    53    19    51 1   
    54    19    52 1   
    55    20    53 1   
    56    20    54 1   
    57    21    55 1   
    58    21    56 1   
    59    22    57 1   
    60    22    58 1   
    61    23    59 1   
    62    23    60 1   
    63    24    61 1   
    64    24    62 1   
    65    26    63 1   
    66    27    64 1   
    67    27    65 1   
@<TRIPOS>SUBSTRUCTURE
     1 8D3         1 TEMP              0 ****  ****    0 ROOT
