@<TRIPOS>MOLECULE
molecule
   20    21     1     0     0
SMALL
bcc


@<TRIPOS>ATOM
      1 O2           0.0000     0.0000     0.0000 o          1 8D4      -0.823300
      2 C1           1.3480     0.0000     0.0000 c          1 8D4       0.803100
      3 O1           1.9550     0.0000     1.0530 o          1 8D4      -0.823300
      4 C2           2.0840     0.0010    -1.2740 cc         1 8D4       0.272800
      5 C3           3.4670     0.0020    -1.4170 cd         1 8D4      -0.147600
      6 N3           3.7110     0.0000    -2.7580 na         1 8D4      -0.074600
      7 N2           2.4620     0.0000    -3.3940 nc         1 8D4      -0.249800
      8 N1           1.5370    -0.0050    -2.5000 nd         1 8D4      -0.305000
      9 C4           4.4710     0.0030    -0.3330 ca         1 8D4      -0.001000
     10 C9           5.5750    -0.8500    -0.3990 ca         1 8D4      -0.078000
     11 C8           6.5080    -0.8440     0.6160 ca         1 8D4      -0.149000
     12 C7           6.3540     0.0050     1.6990 ca         1 8D4      -0.135000
     13 C6           5.2620     0.8530     1.7690 ca         1 8D4      -0.149000
     14 C5           4.3240     0.8610     0.7570 ca         1 8D4      -0.078000
     15 H2           4.6070     0.0020    -3.2020 hn         1 8D4       0.305700
     16 H3           5.6970    -1.5150    -1.2450 ha         1 8D4       0.145500
     17 H4           7.3650    -1.5050     0.5670 ha         1 8D4       0.116500
     18 H5           7.0880     0.0050     2.4950 ha         1 8D4       0.109000
     19 H6           5.1480     1.5170     2.6170 ha         1 8D4       0.116500
     20 H7           3.4710     1.5260     0.8140 ha         1 8D4       0.145500
@<TRIPOS>BOND
     1     6     7 1
     2     6     5 1
     3     7     8 2
     4     5     9 1
     5     5     4 2
     6    14     9 ar
     7    14    13 ar
     8     8     4 1
     9     9    10 ar
    10    13    12 ar
    11     4     2 1
    12    10    11 ar
    13    12    11 ar
    14     2     3 1
    15     2     1 1
    16     6    15 1
    17    10    16 1
    18    11    17 1
    19    12    18 1
    20    13    19 1
    21    14    20 1
@<TRIPOS>SUBSTRUCTURE
     1 8D4         1 TEMP              0 ****  ****    0 ROOT
