@<TRIPOS>MOLECULE
molecule
   24    25     1     0     0
SMALL
bcc


@<TRIPOS>ATOM
      1 C10          0.0000     0.0000     0.0000 ca         1 8D6      -0.010000
      2 C15          1.3990     0.0000     0.0000 ca         1 8D6      -0.237300
      3 N01         -3.6170    -0.7140    -4.8760 nz         1 8D6      -0.680400
      4 O03         -3.9290    -2.0880    -3.1580 o          1 8D6      -0.407100
      5 C04         -2.2320    -0.5200    -2.8800 cc         1 8D6      -0.288900
      6 C05         -1.8170    -0.8720    -1.6140 cd         1 8D6       0.119400
      7 Cl06        -2.4690    -2.1430    -0.6290 cl         1 8D6       0.015600
      8 C07         -0.7620    -0.0000    -1.2730 cd         1 8D6      -0.105000
      9 C08         -0.5700     0.8490    -2.3380 cc         1 8D6      -0.026300
     10 N09         -1.4520     0.5330    -3.3060 na         1 8D6      -0.166100
     11 C11         -0.6600    -0.0070     1.2330 ca         1 8D6      -0.237300
     12 C12          0.0870    -0.0120     2.3920 ca         1 8D6       0.435700
     13 N13          1.4060    -0.0110     2.3470 nb         1 8D6      -0.666000
     14 C14          2.0670     0.0000     1.2060 ca         1 8D6       0.435700
     15 H1           1.9480     0.0090    -0.9330 ha         1 8D6       0.141000
     16 H2          -4.3720    -1.2560    -5.2480 hn         1 8D6       0.476133
     17 H3          -3.9030     0.2410    -4.7900 hn         1 8D6       0.476133
     18 H4           0.1710     1.6380    -2.3920 h4         1 8D6       0.210000
     19 H5          -1.5310     0.9920    -4.1920 hn         1 8D6       0.298700
     20 H6          -1.7430    -0.0070     1.2760 ha         1 8D6       0.141000
     21 H7          -0.4150    -0.0190     3.3510 h4         1 8D6       0.038600
     22 H8           3.1510     0.0000     1.2150 h4         1 8D6       0.038600
     23 H013        -2.8220    -0.7900    -5.4800 hn         1 8D6       0.476133
     24 C02         -3.3110    -1.1580    -3.6410 c          1 8D6       0.522700
@<TRIPOS>BOND
     1     4    24 2   
     2     7     6 1   
     3    24     3 1   
     4    24     5 1   
     5     5     6 2   
     6     5    10 1   
     7     6     8 1   
     8    11    12 ar  
     9    11     1 ar  
    10    10     9 1   
    11    12    13 ar  
    12     8     1 1   
    13     8     9 2   
    14     1     2 ar  
    15    13    14 ar  
    16     2    14 ar  
    17     2    15 1   
    18     3    16 1   
    19     3    17 1   
    20     9    18 1   
    21    10    19 1   
    22    11    20 1   
    23    12    21 1   
    24    14    22 1   
    25    23     3 1   
@<TRIPOS>SUBSTRUCTURE
     1 8D6         1 TEMP              0 ****  ****    0 ROOT
