@<TRIPOS>MOLECULE
8D6
   24    25     1     0     0
SMALL
bcc


@<TRIPOS>ATOM
      1 C10          0.0000     0.0000     0.0000 ca         1 8D6      -0.009000
      2 C15          1.3990     0.0000     0.0000 ca         1 8D6      -0.210300
      3 N01         -3.6170    -0.7140    -4.8760 nz         1 8D6       0.201600
      4 O03         -3.9290    -2.0880    -3.1580 o          1 8D6      -0.435100
      5 C04         -2.2320    -0.5200    -2.8800 cc         1 8D6      -0.498900
      6 C05         -1.8170    -0.8720    -1.6140 cd         1 8D6       0.034400
      7 Cl06        -2.4690    -2.1430    -0.6290 cl         1 8D6       0.131600
      8 C07         -0.7620    -0.0000    -1.2730 cd         1 8D6      -0.090000
      9 C08         -0.5700     0.8490    -2.3380 cc         1 8D6      -0.200300
     10 N09         -1.4520     0.5330    -3.3060 na         1 8D6       0.401900
     11 C11         -0.6600    -0.0070     1.2330 ca         1 8D6      -0.210300
     12 C12          0.0870    -0.0120     2.3920 ca         1 8D6       0.421200
     13 N13          1.4060    -0.0110     2.3470 nb         1 8D6      -0.556000
     14 C14          2.0670     0.0000     1.2060 ca         1 8D6       0.421200
     15 H1           1.9480     0.0090    -0.9330 ha         1 8D6       0.115000
     16 H2          -4.3720    -1.2560    -5.2480 hn         1 8D6       0.242800
     17 H3          -3.9030     0.2410    -4.7900 hn         1 8D6       0.242800
     18 H4           0.1710     1.6380    -2.3920 h4         1 8D6       0.172000
     19 H5          -1.5310     0.9920    -4.1920 hn         1 8D6       0.104700
     20 H6          -1.7430    -0.0070     1.2760 ha         1 8D6       0.115000
     21 H7          -0.4150    -0.0190     3.3510 h4         1 8D6      -0.009900
     22 H8           3.1510     0.0000     1.2150 h4         1 8D6      -0.009900
     23 H013        -2.8220    -0.7900    -5.4800 hn         1 8D6       0.242800
     24 C02         -3.3110    -1.1580    -3.6410 c          1 8D6       0.380700
@<TRIPOS>BOND
     1     1     2 ar  
     2     1     8 1   
     3     1    11 ar  
     4     2    14 ar  
     5     2    15 1   
     6     3    16 1   
     7     3    17 1   
     8     3    23 1   
     9     3    24 1   
    10     4    24 2   
    11     5     6 2   
    12     5    10 1   
    13     5    24 1   
    14     6     7 1   
    15     6     8 1   
    16     8     9 2   
    17     9    10 1   
    18     9    18 1   
    19    10    19 1   
    20    11    12 ar  
    21    11    20 1   
    22    12    13 ar  
    23    12    21 1   
    24    13    14 ar  
    25    14    22 1   
@<TRIPOS>SUBSTRUCTURE
     1 8D6         1 TEMP              0 ****  ****    0 ROOT
