@<TRIPOS>MOLECULE
molecule
   50    50     1     0     0
SMALL
bcc


@<TRIPOS>ATOM
      1 C16          0.0000     0.0000     0.0000 ca         1 8D7      -0.158000
      2 C10          1.3830    -0.0000     2.3970 ca         1 8D7      -0.083000
      3 C8           1.3870     0.0000     0.0000 ca         1 8D7       0.158100
      4 C7           3.4950    -0.0020    -1.1000 c3         1 8D7       0.135400
      5 C6           3.6950     2.4940    -5.4150 c3         1 8D7      -0.091600
      6 C5           4.1760     1.2430    -4.6750 c3         1 8D7      -0.087400
      7 O1          -2.6740     0.8670     2.2290 oh         1 8D7      -0.605800
      8 C13         -2.1970     0.0010     1.1970 c3         1 8D7       0.214400
      9 C14         -2.7080    -1.4200     1.4490 c3         1 8D7      -0.112400
     10 C15         -4.2320    -1.4430     1.3260 c3         1 8D7       0.088800
     11 N           -4.7220    -2.8070     1.5670 nz         1 8D7      -0.810600
     12 C12         -0.6910     0.0010     1.1970 ca         1 8D7      -0.109300
     13 C11          0.0000     0.0010     2.3950 ca         1 8D7      -0.141000
     14 C9           2.0780     0.0000     1.2030 ca         1 8D7      -0.199000
     15 O            2.0680    -0.0010    -1.1760 os         1 8D7      -0.326900
     16 C3           4.0820    -0.0040    -2.5120 c3         1 8D7      -0.070700
     17 C4           3.7140     1.3040    -3.2180 c3         1 8D7      -0.079400
     18 C2           5.6040    -0.1290    -2.4320 c3         1 8D7      -0.079400
     19 C1           5.9730    -1.4980    -1.8550 c3         1 8D7      -0.087400
     20 C            7.4920    -1.6750    -1.8940 c3         1 8D7      -0.091600
     21 H1          -0.5420     0.0000    -0.9380 ha         1 8D7       0.139000
     22 H2           1.9220    -0.0000     3.3370 ha         1 8D7       0.144000
     23 H3           3.8280     0.8830    -0.5710 h1         1 8D7       0.041700
     24 H4           3.8270    -0.8860    -0.5690 h1         1 8D7       0.041700
     25 H5           2.6130     2.4870    -5.4710 hc         1 8D7       0.036533
     26 H6           4.1080     2.5030    -6.4160 hc         1 8D7       0.036533
     27 H7           4.0230     3.3780    -4.8810 hc         1 8D7       0.036533
     28 H8           5.2580     1.1970    -4.7100 hc         1 8D7       0.040450
     29 H9           3.7610     0.3620    -5.1490 hc         1 8D7       0.040450
     30 H10         -2.9940     1.6670     1.8450 ho         1 8D7       0.425000
     31 H11         -2.5580     0.3500     0.2370 h1         1 8D7       0.047700
     32 H12         -2.4210    -1.7350     2.4450 hc         1 8D7       0.078700
     33 H13         -2.2760    -2.0940     0.7190 hc         1 8D7       0.078700
     34 H14         -4.6630    -0.7700     2.0560 hx         1 8D7       0.114700
     35 H15         -4.5180    -1.1280     0.3300 hx         1 8D7       0.114700
     36 H16         -5.7190    -2.8230     1.4830 hn         1 8D7       0.456800
     37 H17         -4.3200    -3.4300     0.8950 hn         1 8D7       0.456800
     38 H19         -0.5420     0.0010     3.3320 ha         1 8D7       0.141000
     39 H20          3.1610    -0.0000     1.2060 ha         1 8D7       0.150000
     40 H21          3.6790    -0.8410    -3.0700 hc         1 8D7       0.064700
     41 H22          4.2010     2.1330    -2.7190 hc         1 8D7       0.051200
     42 H23          2.6400     1.4430    -3.1850 hc         1 8D7       0.051200
     43 H24          5.9970     0.6510    -1.7920 hc         1 8D7       0.051200
     44 H25          6.0270    -0.0300    -3.4250 hc         1 8D7       0.051200
     45 H26          5.5030    -2.2770    -2.4430 hc         1 8D7       0.040450
     46 H27          5.6290    -1.5620    -0.8300 hc         1 8D7       0.040450
     47 H28          7.9650    -0.8600    -1.3590 hc         1 8D7       0.036533
     48 H29          7.8290    -1.6740    -2.9240 hc         1 8D7       0.036533
     49 H30          7.7580    -2.6160    -1.4280 hc         1 8D7       0.036533
     50 HN3         -4.4630    -3.0960     2.4900 hn         1 8D7       0.456800
@<TRIPOS>BOND
     1    19    20 1
     2    19    18 1
     3    16    18 1
     4    16     4 1
     5    16    17 1
     6    11    10 1
     7     6    17 1
     8     6     5 1
     9     4    15 1
    10    10     9 1
    11     9     8 1
    12     7     8 1
    13    15     3 1
    14     1     3 ar
    15     1    12 ar
    16     8    12 1
    17     3    14 ar
    18    12    13 ar
    19    14     2 ar
    20    13     2 ar
    21     1    21 1
    22     2    22 1
    23     4    23 1
    24     4    24 1
    25     5    25 1
    26     5    26 1
    27     5    27 1
    28     6    28 1
    29     6    29 1
    30     7    30 1
    31     8    31 1
    32     9    32 1
    33     9    33 1
    34    10    34 1
    35    10    35 1
    36    11    36 1
    37    11    37 1
    38    13    38 1
    39    14    39 1
    40    16    40 1
    41    17    41 1
    42    17    42 1
    43    18    43 1
    44    18    44 1
    45    19    45 1
    46    19    46 1
    47    20    47 1
    48    20    48 1
    49    20    49 1
    50    50    11 1
@<TRIPOS>SUBSTRUCTURE
     1 8D7         1 TEMP              0 ****  ****    0 ROOT
