@<TRIPOS>MOLECULE
8DA
   35    37     1     0     0
SMALL
bcc


@<TRIPOS>ATOM
      1 O19          0.0000     0.0000     0.0000 oh         1 8DA      -0.581800
      2 C5'          1.4290     0.0000     0.0000 c3         1 8DA       0.228400
      3 C4'          1.9380     0.0000     1.4420 c3         1 8DA       0.160100
      4 C3'          3.4780    -0.1260     1.4680 c3         1 8DA       0.165100
      5 O3'          3.8690    -1.4790     1.7100 oh         1 8DA      -0.567800
      6 O4'          1.6590     1.2690     2.0770 os         1 8DA      -0.372600
      7 C1'          2.5790     1.3470     3.1880 c3         1 8DA       0.251500
      8 C2'          3.9090     0.7800     2.6430 c3         1 8DA      -0.103400
      9 N9           2.7530     2.7390     3.6100 n          1 8DA       0.017700
     10 C4           2.0940     3.8210     3.0790 cc         1 8DA       0.315200
     11 N3           1.2590     3.9230     2.0720 n2         1 8DA      -0.410900
     12 C5           2.4770     4.9480     3.8630 cc         1 8DA      -0.163000
     13 N7           3.4710     4.5040     4.7350 ns         1 8DA      -0.016100
     14 C8           3.5840     3.1660     4.5810 c          1 8DA       0.598500
     15 O18          4.3280     2.4500     5.2260 o          1 8DA      -0.609500
     16 C6           1.9080     6.1740     3.6730 c2         1 8DA      -0.367000
     17 N6           2.3450     7.2990     4.3350 nz         1 8DA       0.345600
     18 N1           0.8530     6.2060     2.7670 nu         1 8DA      -0.394000
     19 C2           0.8270     5.2610     1.6460 c3         1 8DA       0.352000
     20 H19         -0.3140    -0.0640    -0.8870 ho         1 8DA       0.397000
     21 H5'1         1.7900    -0.8850    -0.5110 h1         1 8DA      -0.003800
     22 H5'2         1.7900     0.8850    -0.5110 h1         1 8DA      -0.003800
     23 H4'          1.4880    -0.8080     2.0060 h1         1 8DA       0.054700
     24 H3'          3.9010     0.2370     0.5390 h1         1 8DA       0.015700
     25 H1           4.6210    -1.6880     1.1810 ho         1 8DA       0.401000
     26 H1'          2.2230     0.7400     4.0120 h2         1 8DA       0.051700
     27 H2'1         4.5450     1.5830     2.2890 hc         1 8DA       0.046700
     28 H2'2         4.4120     0.1970     3.4050 hc         1 8DA       0.046700
     29 HN7          3.9780     5.0670     5.3890 hn         1 8DA       0.195500
     30 HN61         2.2900     7.1470     5.3220 hn         1 8DA       0.196800
     31 HN62         3.2940     7.4890     4.0790 hn         1 8DA       0.196800
     32 HN1          0.5030     7.1240     2.5750 hn         1 8DA       0.280800
     33 H21         -0.1830     5.2010     1.2580 h2         1 8DA       0.040200
     34 H22          1.4910     5.6170     0.8680 h2         1 8DA       0.040200
     35 H63          1.7850     8.0830     4.0650 hn         1 8DA       0.196800
@<TRIPOS>BOND
     1     1     2 1   
     2     1    20 1   
     3     2     3 1   
     4     2    21 1   
     5     2    22 1   
     6     3     4 1   
     7     3     6 1   
     8     3    23 1   
     9     4     5 1   
    10     4     8 1   
    11     4    24 1   
    12     5    25 1   
    13     6     7 1   
    14     7     8 1   
    15     7     9 1   
    16     7    26 1   
    17     8    27 1   
    18     8    28 1   
    19     9    10 1   
    20     9    14 1   
    21    10    11 2   
    22    10    12 1   
    23    11    19 1   
    24    12    13 1   
    25    12    16 2   
    26    13    14 1   
    27    13    29 1   
    28    14    15 2   
    29    16    17 1   
    30    16    18 1   
    31    17    30 1   
    32    17    31 1   
    33    17    35 1   
    34    18    19 1   
    35    18    32 1   
    36    19    33 1   
    37    19    34 1   
@<TRIPOS>SUBSTRUCTURE
     1 8DA         1 TEMP              0 ****  ****    0 ROOT
