@<TRIPOS>MOLECULE
8DG
   45    47     1     0     0
SMALL
bcc


@<TRIPOS>ATOM
      1 PG           0.0000     0.0000     0.0000 p5         1 8DG       0.802900
      2 O1G          1.6090     0.0000     0.0000 o          1 8DG      -0.535833
      3 O2G         -0.5370     0.0000     1.5180 o          1 8DG      -0.535833
      4 O3G         -0.4930    -1.2080    -0.6980 o          1 8DG      -0.535833
      5 O3B         -0.5380     1.3150    -0.7580 os         1 8DG      -0.453800
      6 PB          -0.4400     1.0130    -2.3370 p5         1 8DG       1.004800
      7 O1B          1.0970     1.0990    -2.8070 o          1 8DG      -0.366500
      8 O2B         -0.9660    -0.3440    -2.6130 o          1 8DG      -0.366500
      9 O3A         -1.3100     2.0990    -3.1470 os         1 8DG      -0.466800
     10 PA          -1.6150     1.4660    -4.5950 p5         1 8DG       0.954800
     11 O1A         -0.2850     1.5310    -5.4990 o          1 8DG      -0.618000
     12 O2A         -2.0370     0.0560    -4.4380 o          1 8DG      -0.618000
     13 O5'         -2.7910     2.3030    -5.3090 os         1 8DG      -0.462200
     14 C5'         -3.0950     1.6260    -6.5300 c3         1 8DG       0.244400
     15 C4'         -4.2110     2.3740    -7.2630 c3         1 8DG       0.164100
     16 O4'         -3.7280     3.6320    -7.7870 os         1 8DG      -0.362600
     17 C3'         -4.6500     1.5960    -8.5300 c3         1 8DG       0.149100
     18 O3'         -5.6430     0.6190    -8.2110 oh         1 8DG      -0.595800
     19 C2'         -5.2440     2.7200    -9.4130 c3         1 8DG      -0.111400
     20 C1'         -4.6210     4.0120    -8.8480 c3         1 8DG       0.255500
     21 N9          -3.8760     4.7070    -9.9010 n          1 8DG       0.025000
     22 C8          -2.7760     4.2410   -10.5210 c          1 8DG       0.551500
     23 N7          -2.3590     5.1420   -11.4310 ns         1 8DG       0.079900
     24 C5          -3.2320     6.2300   -11.3890 cc         1 8DG      -0.654600
     25 C6          -3.3090     7.4460   -12.0860 c          1 8DG       0.718700
     26 O6          -2.4880     7.7280   -12.9430 o          1 8DG      -0.856500
     27 N1          -4.3180     8.2950   -11.7890 ns         1 8DG      -0.024400
     28 C2          -5.2250     7.9700   -10.8270 cc         1 8DG      -0.410200
     29 N2          -6.2370     8.8490   -10.5380 nz         1 8DG       0.368400
     30 N3          -5.1570     6.8330   -10.1700 nd         1 8DG      -0.663300
     31 C4          -4.1870     5.9470   -10.4200 cd         1 8DG       0.145200
     32 O8          -2.2420     3.1700   -10.2940 o          1 8DG      -0.794500
     33 H5'1        -3.4190     0.6160    -6.3130 h1         1 8DG       0.019200
     34 H5'2        -2.2110     1.5950    -7.1560 h1         1 8DG       0.019200
     35 H4'         -5.0590     2.5390    -6.6090 h1         1 8DG       0.009700
     36 H3'         -3.7950     1.1410    -9.0140 h1         1 8DG       0.042700
     37 H1          -5.5590    -0.1170    -8.7940 ho         1 8DG       0.372000
     38 H2'1        -4.9540     2.5810   -10.4470 hc         1 8DG       0.021700
     39 H2'2        -6.3230     2.7470    -9.3150 hc         1 8DG       0.021700
     40 H1'         -5.4010     4.6540    -8.4570 h2         1 8DG       0.024700
     41 HN7         -1.5630     5.0470   -12.0320 hn         1 8DG       0.152500
     42 HN1         -4.3990     9.1650   -12.2780 hn         1 8DG       0.104500
     43 HN21        -6.7940     8.9970   -11.3560 hn         1 8DG       0.060467
     44 HN22        -5.8470     9.7210   -10.2380 hn         1 8DG       0.060467
     45 H23         -6.8100     8.4720    -9.8090 hn         1 8DG       0.060467
@<TRIPOS>BOND
     1     1     2 1   
     2     1     3 1   
     3     1     4 1   
     4     1     5 1   
     5     5     6 1   
     6     6     7 1   
     7     6     8 1   
     8     6     9 1   
     9     9    10 1   
    10    10    11 1   
    11    10    12 1   
    12    10    13 1   
    13    13    14 1   
    14    14    15 1   
    15    14    33 1   
    16    14    34 1   
    17    15    16 1   
    18    15    17 1   
    19    15    35 1   
    20    16    20 1   
    21    17    18 1   
    22    17    19 1   
    23    17    36 1   
    24    18    37 1   
    25    19    20 1   
    26    19    38 1   
    27    19    39 1   
    28    20    21 1   
    29    20    40 1   
    30    21    22 1   
    31    21    31 1   
    32    22    23 1   
    33    22    32 2   
    34    23    24 1   
    35    23    41 1   
    36    24    25 1   
    37    24    31 2   
    38    25    26 2   
    39    25    27 1   
    40    27    28 1   
    41    27    42 1   
    42    28    29 1   
    43    28    30 2   
    44    29    43 1   
    45    29    44 1   
    46    29    45 1   
    47    30    31 1   
@<TRIPOS>SUBSTRUCTURE
     1 8DG         1 TEMP              0 ****  ****    0 ROOT
