@<TRIPOS>MOLECULE
8DJ
   60    64     1     0     0
SMALL
bcc


@<TRIPOS>ATOM
      1 O            0.0000     0.0000     0.0000 o          1 8DJ      -0.629100
      2 C6           1.2160     0.0000     0.0000 c          1 8DJ       0.593700
      3 N            1.8900     0.0000     1.1670 ns         1 8DJ      -0.193900
      4 C7           1.1580     0.0000     2.4350 c3         1 8DJ       0.010700
      5 C8           2.1370     0.0000     3.5810 ca         1 8DJ       0.338600
      6 N1           2.6350    -1.1420     4.0120 nb         1 8DJ      -0.562000
      7 C12          3.4950    -1.1910     5.0110 ca         1 8DJ       0.401200
      8 C11          3.9050    -0.0350     5.6470 ca         1 8DJ      -0.214300
      9 C10          3.4040     1.1860     5.2220 ca         1 8DJ      -0.069000
     10 C9           2.5060     1.1980     4.1640 ca         1 8DJ      -0.201300
     11 C5           1.9540    -0.0070    -1.2790 ca         1 8DJ      -0.185600
     12 C            1.2580    -0.0120    -2.4920 ca         1 8DJ       0.181900
     13 F           -0.0930    -0.0120    -2.4980 f          1 8DJ      -0.106900
     14 C4           3.3510    -0.0030    -1.2830 ca         1 8DJ      -0.063000
     15 C3           4.0340    -0.0090    -2.4810 ca         1 8DJ      -0.113300
     16 C2           3.3400    -0.0210    -3.6790 ca         1 8DJ      -0.050000
     17 C1           1.9580    -0.0200    -3.6860 ca         1 8DJ      -0.143000
     18 C13          5.5410    -0.0040    -2.4860 c3         1 8DJ       0.014600
     19 C17          6.0550    -1.2530    -3.2060 c3         1 8DJ      -0.055700
     20 C16          7.5840    -1.2120    -3.2620 c3         1 8DJ       0.147800
     21 N2           8.0170    -0.0020    -3.9730 n7         1 8DJ      -0.578200
     22 C15          7.5750     1.2120    -3.2730 c3         1 8DJ       0.145800
     23 C14          6.0460     1.2420    -3.2190 c3         1 8DJ      -0.022400
     24 C18          5.6050    -2.5020    -2.4460 c3         1 8DJ       0.196400
     25 O1           5.9840    -3.6680    -3.1800 os         1 8DJ      -0.302900
     26 C19          5.6560    -4.8730    -2.6380 ca         1 8DJ       0.155100
     27 C25          6.0000    -6.0440    -3.2950 ca         1 8DJ      -0.132000
     28 C24          5.6660    -7.2700    -2.7440 ca         1 8DJ       0.097100
     29 O3           5.8830    -8.5460    -3.1790 os         1 8DJ      -0.314900
     30 C23          5.6920    -9.3840    -2.0230 c3         1 8DJ       0.432200
     31 O2           4.7760    -8.6320    -1.2030 os         1 8DJ      -0.313900
     32 C22          4.9860    -7.3220    -1.5300 ca         1 8DJ       0.014100
     33 C21          4.6450    -6.1500    -0.8770 ca         1 8DJ      -0.041000
     34 C20          4.9850    -4.9270    -1.4270 ca         1 8DJ      -0.214000
     35 H1           2.8910     0.0270     1.1670 hn         1 8DJ       0.177500
     36 H2           0.5340    -0.8840     2.4930 h1         1 8DJ       0.037200
     37 H3           0.5350     0.8850     2.4930 h1         1 8DJ       0.037200
     38 H4           3.8830    -2.1480     5.3370 h4         1 8DJ      -0.016900
     39 H5           4.6100    -0.0810     6.4680 ha         1 8DJ       0.115000
     40 H6           3.7100     2.1090     5.7000 ha         1 8DJ       0.111000
     41 H7           2.0940     2.1330     3.8050 ha         1 8DJ       0.119000
     42 H8           3.8960     0.0070    -0.3470 ha         1 8DJ       0.109000
     43 H9           3.8840    -0.0270    -4.6160 ha         1 8DJ       0.119000
     44 H10          1.4220    -0.0270    -4.6270 ha         1 8DJ       0.125000
     45 H11          5.9110     0.0030    -1.4680 hc         1 8DJ       0.029700
     46 H12          5.6590    -1.2750    -4.2140 hc         1 8DJ       0.056700
     47 H13          7.9800    -1.1970    -2.2540 h1         1 8DJ       0.014200
     48 H14          7.9480    -2.0870    -3.7860 h1         1 8DJ       0.014200
     49 H15          9.0140     0.0010    -4.0500 hn         1 8DJ       0.254800
     50 H17          7.9340     2.0840    -3.8060 h1         1 8DJ       0.006700
     51 H18          7.9710     1.2090    -2.2650 h1         1 8DJ       0.006700
     52 H19          5.6500     1.2530    -4.2270 hc         1 8DJ       0.026200
     53 H20          5.7220     2.1290    -2.6870 hc         1 8DJ       0.026200
     54 H21          6.0760    -2.5210    -1.4710 h1         1 8DJ       0.009200
     55 H22          4.5290    -2.4850    -2.3270 h1         1 8DJ       0.009200
     56 H23          6.5130    -6.0010    -4.2480 ha         1 8DJ       0.126000
     57 H24          6.6330    -9.5110    -1.5010 h2         1 8DJ       0.013700
     58 H25          4.1200    -6.1910     0.0700 ha         1 8DJ       0.112000
     59 H26          4.7270    -4.0110    -0.9090 ha         1 8DJ       0.125000
     60 H16          5.2360   -10.3210    -2.3190 h2         1 8DJ       0.013700
@<TRIPOS>BOND
     1     1     2 2   
     2     2     3 1   
     3     2    11 1   
     4     3     4 1   
     5     3    35 1   
     6     4     5 1   
     7     4    36 1   
     8     4    37 1   
     9     5     6 ar  
    10     5    10 ar  
    11     6     7 ar  
    12     7     8 ar  
    13     7    38 1   
    14     8     9 ar  
    15     8    39 1   
    16     9    10 ar  
    17     9    40 1   
    18    10    41 1   
    19    11    12 ar  
    20    11    14 ar  
    21    12    13 1   
    22    12    17 ar  
    23    14    15 ar  
    24    14    42 1   
    25    15    16 ar  
    26    15    18 1   
    27    16    17 ar  
    28    16    43 1   
    29    17    44 1   
    30    18    19 1   
    31    18    23 1   
    32    18    45 1   
    33    19    20 1   
    34    19    24 1   
    35    19    46 1   
    36    20    21 1   
    37    20    47 1   
    38    20    48 1   
    39    21    22 1   
    40    21    49 1   
    41    22    23 1   
    42    22    50 1   
    43    22    51 1   
    44    23    52 1   
    45    23    53 1   
    46    24    25 1   
    47    24    54 1   
    48    24    55 1   
    49    25    26 1   
    50    26    27 ar  
    51    26    34 ar  
    52    27    28 ar  
    53    27    56 1   
    54    28    29 1   
    55    28    32 ar  
    56    29    30 1   
    57    30    31 1   
    58    30    57 1   
    59    30    60 1   
    60    31    32 1   
    61    32    33 ar  
    62    33    34 ar  
    63    33    58 1   
    64    34    59 1   
@<TRIPOS>SUBSTRUCTURE
     1 8DJ         1 TEMP              0 ****  ****    0 ROOT
