@<TRIPOS>MOLECULE
molecule
   60    64     1     0     0
SMALL
bcc


@<TRIPOS>ATOM
      1 O            0.0000     0.0000     0.0000 o          1 8DJ      -0.589100
      2 C6           1.2160     0.0000     0.0000 c          1 8DJ       0.673700
      3 N            1.8900     0.0000     1.1670 ns         1 8DJ      -0.579900
      4 C7           1.1580     0.0000     2.4350 c3         1 8DJ       0.072700
      5 C8           2.1370     0.0000     3.5810 ca         1 8DJ       0.392600
      6 N1           2.6350    -1.1420     4.0120 nb         1 8DJ      -0.680000
      7 C12          3.4950    -1.1910     5.0110 ca         1 8DJ       0.419200
      8 C11          3.9050    -0.0350     5.6470 ca         1 8DJ      -0.248300
      9 C10          3.4040     1.1860     5.2220 ca         1 8DJ      -0.095000
     10 C9           2.5060     1.1980     4.1640 ca         1 8DJ      -0.237300
     11 C5           1.9540    -0.0070    -1.2790 ca         1 8DJ      -0.186600
     12 C            1.2580    -0.0120    -2.4920 ca         1 8DJ       0.196900
     13 F           -0.0930    -0.0120    -2.4980 f          1 8DJ      -0.105900
     14 C4           3.3510    -0.0030    -1.2830 ca         1 8DJ      -0.082000
     15 C3           4.0340    -0.0090    -2.4810 ca         1 8DJ      -0.113300
     16 C2           3.3400    -0.0210    -3.6790 ca         1 8DJ      -0.074000
     17 C1           1.9580    -0.0200    -3.6860 ca         1 8DJ      -0.177000
     18 C13          5.5410    -0.0040    -2.4860 c3         1 8DJ      -0.019400
     19 C17          6.0550    -1.2530    -3.2060 c3         1 8DJ      -0.060700
     20 C16          7.5840    -1.2120    -3.2620 c3         1 8DJ       0.162800
     21 N2           8.0170    -0.0020    -3.9730 n7         1 8DJ      -0.819200
     22 C15          7.5750     1.2120    -3.2730 c3         1 8DJ       0.155800
     23 C14          6.0460     1.2420    -3.2190 c3         1 8DJ      -0.069400
     24 C18          5.6050    -2.5020    -2.4460 c3         1 8DJ       0.138400
     25 O1           5.9840    -3.6680    -3.1800 os         1 8DJ      -0.327900
     26 C19          5.6560    -4.8730    -2.6380 ca         1 8DJ       0.148100
     27 C25          6.0000    -6.0440    -3.2950 ca         1 8DJ      -0.148000
     28 C24          5.6660    -7.2700    -2.7440 ca         1 8DJ       0.086100
     29 O3           5.8830    -8.5460    -3.1790 os         1 8DJ      -0.324900
     30 C23          5.6920    -9.3840    -2.0230 c3         1 8DJ       0.332200
     31 O2           4.7760    -8.6320    -1.2030 os         1 8DJ      -0.326900
     32 C22          4.9860    -7.3220    -1.5300 ca         1 8DJ       0.010100
     33 C21          4.6450    -6.1500    -0.8770 ca         1 8DJ      -0.073000
     34 C20          4.9850    -4.9270    -1.4270 ca         1 8DJ      -0.220000
     35 H1           2.8910     0.0270     1.1670 hn         1 8DJ       0.316500
     36 H2           0.5340    -0.8840     2.4930 h1         1 8DJ       0.070200
     37 H3           0.5350     0.8850     2.4930 h1         1 8DJ       0.070200
     38 H4           3.8830    -2.1480     5.3370 h4         1 8DJ       0.027100
     39 H5           4.6100    -0.0810     6.4680 ha         1 8DJ       0.141000
     40 H6           3.7100     2.1090     5.7000 ha         1 8DJ       0.141000
     41 H7           2.0940     2.1330     3.8050 ha         1 8DJ       0.144000
     42 H8           3.8960     0.0070    -0.3470 ha         1 8DJ       0.132000
     43 H9           3.8840    -0.0270    -4.6160 ha         1 8DJ       0.147000
     44 H10          1.4220    -0.0270    -4.6270 ha         1 8DJ       0.154000
     45 H11          5.9110     0.0030    -1.4680 hc         1 8DJ       0.053700
     46 H12          5.6590    -1.2750    -4.2140 hc         1 8DJ       0.082700
     47 H13          7.9800    -1.1970    -2.2540 h1         1 8DJ       0.041200
     48 H14          7.9480    -2.0870    -3.7860 h1         1 8DJ       0.041200
     49 H15          9.0140     0.0010    -4.0500 hn         1 8DJ       0.358800
     50 H17          7.9340     2.0840    -3.8060 h1         1 8DJ       0.033200
     51 H18          7.9710     1.2090    -2.2650 h1         1 8DJ       0.033200
     52 H19          5.6500     1.2530    -4.2270 hc         1 8DJ       0.055700
     53 H20          5.7220     2.1290    -2.6870 hc         1 8DJ       0.055700
     54 H21          6.0760    -2.5210    -1.4710 h1         1 8DJ       0.041200
     55 H22          4.5290    -2.4850    -2.3270 h1         1 8DJ       0.041200
     56 H23          6.5130    -6.0010    -4.2480 ha         1 8DJ       0.157000
     57 H24          6.6330    -9.5110    -1.5010 h2         1 8DJ       0.071200
     58 H25          4.1200    -6.1910     0.0700 ha         1 8DJ       0.146000
     59 H26          4.7270    -4.0110    -0.9090 ha         1 8DJ       0.144000
     60 H16          5.2360   -10.3210    -2.3190 h2         1 8DJ       0.071200
@<TRIPOS>BOND
     1     8     7 ar
     2     8     9 ar
     3     7     6 ar
     4     9    10 ar
     5     6     5 ar
     6    10     5 ar
     7     5     4 1
     8     4     3 1
     9     3     2 1
    10     1     2 2
    11     2    11 1
    12    13    12 1
    13    11    12 ar
    14    11    14 ar
    15    12    17 ar
    16    14    15 ar
    17    17    16 ar
    18    29    30 1
    19    29    28 1
    20    15    16 ar
    21    15    18 1
    22    24    19 1
    23    24    25 1
    24    27    28 ar
    25    27    26 ar
    26    30    31 1
    27    28    32 ar
    28    19    18 1
    29    19    20 1
    30    18    23 1
    31    25    26 1
    32    26    34 ar
    33    23    22 1
    34    32    31 1
    35    32    33 ar
    36    20    21 1
    37    21    22 1
    38    34    33 ar
    39     3    35 1
    40     4    36 1
    41     4    37 1
    42     7    38 1
    43     8    39 1
    44     9    40 1
    45    10    41 1
    46    14    42 1
    47    16    43 1
    48    17    44 1
    49    18    45 1
    50    19    46 1
    51    20    47 1
    52    20    48 1
    53    21    49 1
    54    22    50 1
    55    22    51 1
    56    23    52 1
    57    23    53 1
    58    24    54 1
    59    24    55 1
    60    27    56 1
    61    30    57 1
    62    33    58 1
    63    34    59 1
    64    30    60 1
@<TRIPOS>SUBSTRUCTURE
     1 8DJ         1 TEMP              0 ****  ****    0 ROOT
