@<TRIPOS>MOLECULE
8DM
   31    31     1     0     0
SMALL
bcc


@<TRIPOS>ATOM
      1 C4           0.0000     0.0000     0.0000 ca         1 8DM       0.000600
      2 C2          -0.0160     0.0010     2.3980 ca         1 8DM      -0.066000
      3 C6           2.0810     0.0000     1.1910 ca         1 8DM      -0.066000
      4 C5           1.3920     0.0000     0.0000 ca         1 8DM      -0.134500
      5 C1           1.3820     0.0010     2.4020 ca         1 8DM      -0.102600
      6 C3          -0.7000     0.0000     1.2030 ca         1 8DM      -0.134500
      7 N4          -0.6940     0.0040    -1.2050 nv         1 8DM      -0.560200
      8 C            2.1170     0.0030     3.6810 c          1 8DM       0.565700
      9 O            1.5080     0.0040     4.7320 o          1 8DM      -0.684100
     10 N            3.4650     0.0030     3.6820 ns         1 8DM      -0.089900
     11 CA           4.1950     0.0050     4.9520 c3         1 8DM      -0.114300
     12 CT           4.3380     1.4220     5.4480 c          1 8DM       0.987600
     13 O1           3.8770     2.3360     4.8060 o          1 8DM      -0.909300
     14 O2           4.9780     1.6680     6.6020 o          1 8DM      -0.909300
     15 CB           5.5830    -0.6040     4.7430 c3         1 8DM      -0.012400
     16 CG           5.4400    -2.0780     4.3600 c3         1 8DM      -0.143400
     17 CD           6.8070    -2.6790     4.1550 c          1 8DM       0.982600
     18 OE1          6.9280    -3.9710     3.8110 o          1 8DM      -0.920800
     19 OE2          7.7950    -1.9970     4.2990 o          1 8DM      -0.920800
     20 H1          -0.5610     0.0020     3.3350 ha         1 8DM       0.122000
     21 H2           3.1640     0.0000     1.1910 ha         1 8DM       0.122000
     22 H3           1.9330    -0.0010    -0.9380 ha         1 8DM       0.093500
     23 H4          -1.7830     0.0000     1.2000 ha         1 8DM       0.093500
     24 H5          -0.9420     0.8730    -1.6370 hn         1 8DM       0.257800
     25 H6          -0.9450    -0.8610    -1.6410 hn         1 8DM       0.257800
     26 H7           3.9660     0.0480     2.8170 hn         1 8DM       0.159500
     27 H8           3.6510    -0.5800     5.6830 h1         1 8DM       0.052700
     28 H10          6.0950    -0.0730     3.9500 hc         1 8DM       0.036200
     29 H11          6.1550    -0.5220     5.6600 hc         1 8DM       0.036200
     30 H12          4.9280    -2.6090     5.1540 hc         1 8DM      -0.000800
     31 H13          4.8690    -2.1600     3.4440 hc         1 8DM      -0.000800
@<TRIPOS>BOND
     1     1     4 ar  
     2     1     6 ar  
     3     1     7 1   
     4     2     5 ar  
     5     2     6 ar  
     6     2    20 1   
     7     3     4 ar  
     8     3     5 ar  
     9     3    21 1   
    10     4    22 1   
    11     5     8 1   
    12     6    23 1   
    13     7    24 1   
    14     7    25 1   
    15     8     9 2   
    16     8    10 1   
    17    10    11 1   
    18    10    26 1   
    19    11    12 1   
    20    11    15 1   
    21    11    27 1   
    22    12    13 1   
    23    12    14 1   
    24    15    16 1   
    25    15    28 1   
    26    15    29 1   
    27    16    17 1   
    28    16    30 1   
    29    16    31 1   
    30    17    18 1   
    31    17    19 1   
@<TRIPOS>SUBSTRUCTURE
     1 8DM         1 TEMP              0 ****  ****    0 ROOT
