@<TRIPOS>MOLECULE
molecule
   48    50     1     0     0
SMALL
bcc


@<TRIPOS>ATOM
      1 C4           0.0000     0.0000     0.0000 c          1 8DP       0.515100
      2 C5           1.5070     0.0000     0.0000 c3         1 8DP      -0.094700
      3 C8           2.2450     0.0160     4.1240 cc         1 8DP       0.155700
      4 N3           2.9230     3.4730     1.9850 nd         1 8DP      -0.631000
      5 C2          -0.6860    -0.9680    -2.1780 c3         1 8DP       0.139100
      6 N2           2.0250    -1.1380     4.8710 nv         1 8DP      -0.636100
      7 N1           1.9960     1.1930     0.6950 na         1 8DP      -0.030100
      8 C6           2.2200     1.1600     2.0140 cd         1 8DP      -0.071600
      9 O6          -2.1190    -1.0960    -0.2360 oh         1 8DP      -0.558800
     10 N4           1.9930     2.3660    -1.3390 ns         1 8DP      -0.442100
     11 C12          2.7110     2.3640     2.6930 cc         1 8DP       0.350300
     12 C13          2.2180     2.3070     0.0270 cc         1 8DP       0.015000
     13 C14          2.6910     3.4680     0.6870 cd         1 8DP       0.320800
     14 C15          2.9180     4.6850    -0.1270 c          1 8DP       0.611000
     15 C16          2.2180     3.4980    -2.0260 c          1 8DP       0.812500
     16 C1          -1.4510    -2.1120    -2.8440 c3         1 8DP       0.194400
     17 C3          -0.7540    -1.1260    -0.6570 c3         1 8DP       0.067100
     18 C7           1.9990     0.0000     2.7680 cc         1 8DP      -0.191000
     19 C9           2.7090     1.1720     4.7670 cc         1 8DP      -0.085200
     20 O1          -2.1690    -2.3180    -6.7710 o          1 8DP      -0.670833
     21 P1          -2.2140    -2.9140    -5.2770 p5         1 8DP       1.193900
     22 O2          -3.6220    -3.1050    -4.8630 o          1 8DP      -0.670833
     23 O3          -1.4520    -4.3320    -5.2590 o          1 8DP      -0.670833
     24 O4          -1.4870    -1.9020    -4.2580 os         1 8DP      -0.590200
     25 O5           0.6800    -0.9990    -2.5980 oh         1 8DP      -0.661800
     26 O7          -0.6040     0.9020     0.5310 o          1 8DP      -0.478100
     27 C10          2.9570     1.1370     6.2520 c3         1 8DP      -0.041900
     28 C11          2.9390     2.3210     4.0820 cc         1 8DP      -0.107000
     29 O8           3.3240     5.7090     0.3840 o          1 8DP      -0.569500
     30 N5           2.6650     4.6250    -1.4520 ns         1 8DP      -0.564500
     31 O9           2.0060     3.5020    -3.2230 o          1 8DP      -0.627500
     32 H1           1.8690    -0.8870     0.5070 h1         1 8DP       0.109700
     33 H2           1.8680     0.0040    -1.0210 h1         1 8DP       0.109700
     34 H3          -1.1300    -0.0220    -2.4630 h1         1 8DP       0.065700
     35 H4           2.6100    -1.9390     4.7380 hn         1 8DP       0.275700
     36 H5           1.2520    -1.1820     5.5050 hn         1 8DP       0.275700
     37 H6          -2.2530    -1.7360     0.4430 ho         1 8DP       0.408000
     38 H7           1.6600     1.5550    -1.8200 hn         1 8DP       0.375500
     39 H8          -0.9550    -3.0510    -2.6320 h1         1 8DP       0.043700
     40 H9          -2.4630    -2.1430    -2.4580 h1         1 8DP       0.043700
     41 H10         -0.3100    -2.0720    -0.3720 h1         1 8DP       0.057700
     42 H11          1.7720    -0.9350     2.2700 ha         1 8DP       0.140000
     43 H14          0.7300    -0.7940    -3.5170 ho         1 8DP       0.449000
     44 H15          3.3180     2.1050     6.5810 hc         1 8DP       0.043700
     45 H16          2.0340     0.9020     6.7670 hc         1 8DP       0.043700
     46 H17          3.6990     0.3800     6.4770 hc         1 8DP       0.043700
     47 H18          3.2970     3.2010     4.6020 ha         1 8DP       0.159000
     48 H19          2.8150     5.4380    -2.0170 hn         1 8DP       0.371500
@<TRIPOS>BOND
     1    22    21 1   
     2    25     5 1   
     3    24    21 1   
     4    24    16 1   
     5    23    21 1   
     6    21    20 1   
     7    31    15 2   
     8     5    16 1   
     9     5    17 1   
    10    26     1 2   
    11    15    10 1   
    12    15    30 1   
    13     1    17 1   
    14     1     2 1   
    15    17     9 1   
    16    10    12 1   
    17    30    14 1   
    18     2     7 1   
    19    12     7 1   
    20    12    13 2   
    21    14    13 1   
    22    14    29 2   
    23     7     8 1   
    24    13     4 1   
    25     8    18 2   
    26     8    11 1   
    27     4    11 2   
    28    18     3 1   
    29    11    28 1   
    30     3     6 2   
    31     3    19 1   
    32    28    19 2   
    33    19    27 1   
    34     2    32 1   
    35     2    33 1   
    36     5    34 1   
    37     6    35 1   
    38     6    36 1   
    39     9    37 1   
    40    10    38 1   
    41    16    39 1   
    42    16    40 1   
    43    17    41 1   
    44    18    42 1   
    45    25    43 1   
    46    27    44 1   
    47    27    45 1   
    48    27    46 1   
    49    28    47 1   
    50    30    48 1   
@<TRIPOS>SUBSTRUCTURE
     1 8DP         1 TEMP              0 ****  ****    0 ROOT
