@<TRIPOS>MOLECULE
molecule
   41    44     1     0     0
SMALL
bcc


@<TRIPOS>ATOM
      1 O            0.0000     0.0000     0.0000 o          1 8DQ      -0.568100
      2 C            1.2210     0.0000     0.0000 c          1 8DQ       0.598900
      3 C8           1.9880     0.0000     1.2630 ca         1 8DQ      -0.221600
      4 C7           1.3460     0.0000     2.5010 ca         1 8DQ      -0.041000
      5 C6           2.0920     0.0000     3.6600 ca         1 8DQ      -0.165000
      6 C5           3.4750    -0.0000     3.6030 ca         1 8DQ      -0.071000
      7 C3           3.3870    -0.0000     1.1930 ca         1 8DQ       0.171100
      8 C4           4.1320    -0.0010     2.3780 cp         1 8DQ      -0.064000
      9 C9           5.6140    -0.0020     2.3270 cp         1 8DQ      -0.035000
     10 C14          6.3410     0.9210     3.0770 ca         1 8DQ      -0.111500
     11 C13          7.7200     0.9150     3.0260 ca         1 8DQ      -0.131000
     12 C12          8.3810    -0.0050     2.2320 ca         1 8DQ      -0.125000
     13 C11          7.6650    -0.9240     1.4860 ca         1 8DQ      -0.131000
     14 C10          6.2860    -0.9300     1.5330 ca         1 8DQ      -0.111500
     15 O1           3.9990    -0.0020    -0.0100 os         1 8DQ      -0.234200
     16 C2           3.3140    -0.0020    -1.1610 cc         1 8DQ       0.398100
     17 C1           1.9520    -0.0060    -1.2030 cd         1 8DQ      -0.436200
     18 N            4.0100    -0.0080    -2.3420 nh         1 8DQ      -0.722400
     19 C18          3.4700     0.6520    -3.5400 c3         1 8DQ       0.244300
     20 C17          4.5460     1.5840    -4.1090 c3         1 8DQ       0.135800
     21 N1           5.7840     0.8240    -4.3240 n7         1 8DQ      -0.818200
     22 C16          6.3190     0.3090    -3.0570 c3         1 8DQ       0.135800
     23 C15          5.3190    -0.6710    -2.4430 c3         1 8DQ       0.244300
     24 H1           0.2640     0.0000     2.5510 ha         1 8DQ       0.160000
     25 H2           1.5930     0.0010     4.6210 ha         1 8DQ       0.139000
     26 H3           4.0510    -0.0000     4.5210 ha         1 8DQ       0.143000
     27 H4           5.8240     1.6420     3.6990 ha         1 8DQ       0.135000
     28 H5           8.2860     1.6320     3.6080 ha         1 8DQ       0.130000
     29 H6           9.4640    -0.0050     2.1930 ha         1 8DQ       0.129000
     30 H7           8.1880    -1.6430     0.8680 ha         1 8DQ       0.130000
     31 H8           5.7260    -1.6500     0.9490 ha         1 8DQ       0.135000
     32 H9           1.4360    -0.0060    -2.1550 ha         1 8DQ       0.167000
     33 H10          3.2090    -0.0950    -4.2800 h1         1 8DQ       0.063700
     34 H11          2.5940     1.2300    -3.2720 h1         1 8DQ       0.063700
     35 H12          4.2060     1.9930    -5.0530 h1         1 8DQ       0.043700
     36 H13          4.7330     2.3880    -3.4080 h1         1 8DQ       0.043700
     37 H14          6.4660     1.4130    -4.7590 hn         1 8DQ       0.359800
     38 H16          6.4820     1.1330    -2.3730 h1         1 8DQ       0.043700
     39 H17          7.2560    -0.2030    -3.2430 h1         1 8DQ       0.043700
     40 H18          5.2350    -1.5460    -3.0750 h1         1 8DQ       0.063700
     41 H19          5.6560    -0.9600    -1.4550 h1         1 8DQ       0.063700
@<TRIPOS>BOND
     1    21    22 1   
     2    21    20 1   
     3    22    23 1   
     4    20    19 1   
     5    23    18 1   
     6    19    18 1   
     7    18    16 1   
     8    13    14 ar  
     9    13    12 ar  
    10    16    17 2   
    11    16    15 1   
    12    14     9 ar  
    13    17     2 1   
    14    15     7 1   
    15    12    11 ar  
    16     2     1 2   
    17     2     3 1   
    18     7     3 ar  
    19     7     8 ar  
    20     9     8 1   
    21     9    10 ar  
    22     3     4 ar  
    23     8     6 ar  
    24    11    10 ar  
    25     4     5 ar  
    26     6     5 ar  
    27     4    24 1   
    28     5    25 1   
    29     6    26 1   
    30    10    27 1   
    31    11    28 1   
    32    12    29 1   
    33    13    30 1   
    34    14    31 1   
    35    17    32 1   
    36    19    33 1   
    37    19    34 1   
    38    20    35 1   
    39    20    36 1   
    40    21    37 1   
    41    22    38 1   
    42    22    39 1   
    43    23    40 1   
    44    23    41 1   
@<TRIPOS>SUBSTRUCTURE
     1 8DQ         1 TEMP              0 ****  ****    0 ROOT
