@<TRIPOS>MOLECULE
molecule
   51    53     1     0     0
SMALL
bcc


@<TRIPOS>ATOM
      1 C            0.0000     0.0000     0.0000 c          1 8DR       0.882600
      2 N            1.9960     1.1950    -0.6920 ns         1 8DR      -0.553900
      3 O           -0.6720    -1.0060     0.5810 o          1 8DR      -0.818300
      4 CA           1.5070     0.0000     0.0000 c3         1 8DR       0.005700
      5 CB           2.0160     0.0000     1.4420 c3         1 8DR      -0.073400
      6 NE           5.5110    -0.2470     2.8890 nu         1 8DR      -0.810200
      7 CG           3.5420    -0.1260     1.4440 c3         1 8DR      -0.060400
      8 CZ           6.1980    -0.2680     4.0790 c2         1 8DR       0.674100
      9 OAE          2.9290     0.1260    -7.0030 o          1 8DR      -0.628300
     10 OAF          3.5500     2.5450    -6.9060 o          1 8DR      -0.628300
     11 CAH          6.8400    -0.7740    -5.6370 ca         1 8DR      -0.149000
     12 CAI          3.4500     4.5660    -3.4280 cc         1 8DR      -0.109100
     13 CAJ          5.5660    -0.3960    -6.0580 ca         1 8DR       0.014000
     14 CAK          3.2450     3.7110    -4.4340 cd         1 8DR      -0.139000
     15 CAL          7.6240     0.0580    -4.9110 ca         1 8DR      -0.036000
     16 NAP          7.7210     2.3240    -3.8720 nc         1 8DR      -0.397500
     17 NAQ          5.5400     2.9720    -4.5920 nc         1 8DR      -0.368500
     18 SAU          6.7470     3.5340    -3.7880 ss         1 8DR       0.744000
     19 SAV          3.0550     3.8580    -1.9270 ss         1 8DR      -0.137800
     20 CAY          2.1240     1.1930    -2.0340 c          1 8DR       0.710700
     21 CAZ          2.7660     2.4700    -4.0600 cd         1 8DR       0.183600
     22 CBA          5.0520     0.8220    -5.7590 ca         1 8DR      -0.256500
     23 CBB          2.5970     2.3470    -2.7010 cc         1 8DR      -0.125700
     24 CBC          7.1530     1.3490    -4.5610 ca         1 8DR      -0.084000
     25 CBD          5.8170     1.7450    -5.0020 ca         1 8DR      -0.005000
     26 SBF          3.4370     1.2590    -6.3120 sy         1 8DR       1.429200
     27 NH1          7.5680    -0.3810     4.0820 nz         1 8DR      -0.807600
     28 NH2          5.5500    -0.1810     5.2070 n2         1 8DR      -0.796100
     29 OXT         -0.6030     0.9090    -0.5200 o          1 8DR      -0.818300
     30 HN           2.2000     2.0260    -0.1720 hn         1 8DR       0.297500
     31 HA           1.8680    -0.8850    -0.5100 h1         1 8DR       0.074700
     32 HB           1.7290     0.9260     1.9260 hc         1 8DR       0.071200
     33 HBA          1.5840    -0.8370     1.9770 hc         1 8DR       0.071200
     34 HD           3.8610    -1.0620     2.3750 h1         1 8DR       0.132200
     35 HDA          3.4280    -0.0780     3.7710 h1         1 8DR       0.132200
     36 HNE          6.0110    -0.2870     2.0230 hn         1 8DR       0.453800
     37 HG           3.9740     0.7110     0.9090 hc         1 8DR       0.037700
     38 HGA          3.8290    -1.0510     0.9600 hc         1 8DR       0.037700
     39 HAI          3.8200     5.5760    -3.5500 h4         1 8DR       0.166000
     40 HAK          3.4380     3.9730    -5.4680 ha         1 8DR       0.199000
     41 HNH1         7.9180    -0.1850     4.9990 hn         1 8DR       0.459467
     42 HNHA         7.8270    -1.3110     3.8180 hn         1 8DR       0.459467
     43 HNH2         6.0490    -0.1960     6.0750 hn         1 8DR       0.424400
     44 HAH          7.2120    -1.7580    -5.8980 ha         1 8DR       0.143000
     45 CD           4.0510    -0.1260     2.8860 c3         1 8DR       0.067800
     46 OAD          1.8340     0.1960    -2.6710 o          1 8DR      -0.617100
     47 HAJ          4.9720    -1.0920    -6.6370 ha         1 8DR       0.169000
     48 HH13         7.9570     0.2650     3.4240 hn         1 8DR       0.459467
     49 NAT          2.4920     1.4470    -4.9650 nu         1 8DR      -0.727500
     50 HAL          8.6110    -0.2620    -4.5970 ha         1 8DR       0.143000
     51 HNAT         1.6970     0.8560    -4.8260 hn         1 8DR       0.502800
@<TRIPOS>BOND
     1     4     1 1   
     2     3     1 1   
     3     1    29 1   
     4    20     2 1   
     5     2     4 1   
     6     2    30 1   
     7     4     5 1   
     8     4    31 1   
     9     5     7 1   
    10     5    32 1   
    11     5    33 1   
    12    45     7 1   
    13    45     6 1   
    14    45    34 1   
    15    45    35 1   
    16     6     8 1   
    17     6    36 1   
    18     7    37 1   
    19     7    38 1   
    20    28     8 2   
    21     8    27 1   
    22    46    20 2   
    23    26     9 2   
    24    10    26 2   
    25    11    13 ar  
    26    11    15 ar  
    27    11    44 1   
    28    19    12 1   
    29    12    14 2   
    30    12    39 1   
    31    13    22 ar  
    32    13    47 1   
    33    14    21 1   
    34    14    40 1   
    35    15    24 ar  
    36    15    50 1   
    37    24    16 2   
    38    16    18 1   
    39    25    17 2   
    40    17    18 1   
    41    21    49 1   
    42    49    26 1   
    43    49    51 1   
    44    19    23 1   
    45    23    20 1   
    46    23    21 2   
    47    22    26 1   
    48    22    25 ar  
    49    24    25 ar  
    50    27    41 1   
    51    27    42 1   
    52    28    43 1   
    53    48    27 1   
@<TRIPOS>SUBSTRUCTURE
     1 8DR         1 TEMP              0 ****  ****    0 ROOT
