@<TRIPOS>MOLECULE
8DR
   51    53     1     0     0
SMALL
bcc


@<TRIPOS>ATOM
      1 C            0.0000     0.0000     0.0000 c          1 8DR       0.969600
      2 N            1.9960     1.1950    -0.6920 ns         1 8DR      -0.146900
      3 O           -0.6720    -1.0060     0.5810 o          1 8DR      -0.868300
      4 CA           1.5070     0.0000     0.0000 c3         1 8DR      -0.101300
      5 CB           2.0160     0.0000     1.4420 c3         1 8DR      -0.022400
      6 NE           5.5110    -0.2470     2.8890 nu         1 8DR      -0.412200
      7 CG           3.5420    -0.1260     1.4440 c3         1 8DR       0.015600
      8 CZ           6.1980    -0.2680     4.0790 c2         1 8DR       0.227100
      9 OAE          2.9290     0.1260    -7.0030 o          1 8DR      -0.582800
     10 OAF          3.5500     2.5450    -6.9060 o          1 8DR      -0.582800
     11 CAH          6.8400    -0.7740    -5.6370 ca         1 8DR      -0.124000
     12 CAI          3.4500     4.5660    -3.4280 cc         1 8DR      -0.021100
     13 CAJ          5.5660    -0.3960    -6.0580 ca         1 8DR       0.051000
     14 CAK          3.2450     3.7110    -4.4340 cd         1 8DR      -0.139000
     15 CAL          7.6240     0.0580    -4.9110 ca         1 8DR      -0.017000
     16 NAP          7.7210     2.3240    -3.8720 nc         1 8DR      -0.248500
     17 NAQ          5.5400     2.9720    -4.5920 nc         1 8DR      -0.221500
     18 SAU          6.7470     3.5340    -3.7880 ss         1 8DR       0.507000
     19 SAV          3.0550     3.8580    -1.9270 ss         1 8DR      -0.264800
     20 CAY          2.1240     1.1930    -2.0340 c          1 8DR       0.635700
     21 CAZ          2.7660     2.4700    -4.0600 cd         1 8DR       0.110600
     22 CBA          5.0520     0.8220    -5.7590 ca         1 8DR      -0.115500
     23 CBB          2.5970     2.3470    -2.7010 cc         1 8DR      -0.112700
     24 CBC          7.1530     1.3490    -4.5610 ca         1 8DR      -0.111000
     25 CBD          5.8170     1.7450    -5.0020 ca         1 8DR      -0.018000
     26 SBF          3.4370     1.2590    -6.3120 sy         1 8DR       1.037200
     27 NH1          7.5680    -0.3810     4.0820 nz         1 8DR       0.199400
     28 NH2          5.5500    -0.1810     5.2070 n2         1 8DR      -0.664100
     29 OXT         -0.6030     0.9090    -0.5200 o          1 8DR      -0.868300
     30 HN           2.2010     2.0250    -0.1720 hn         1 8DR       0.162500
     31 HA           1.8680    -0.8850    -0.5100 h1         1 8DR       0.054700
     32 HB           1.7290     0.9260     1.9260 hc         1 8DR       0.041700
     33 HBA          1.5840    -0.8370     1.9770 hc         1 8DR       0.041700
     34 HD           3.8610    -1.0620     2.3760 h1         1 8DR       0.108700
     35 HDA          3.4280    -0.0780     3.7710 h1         1 8DR       0.108700
     36 HNE          6.0110    -0.2890     2.0230 hn         1 8DR       0.297800
     37 HG           3.9740     0.7110     0.9090 hc         1 8DR       0.012200
     38 HGA          3.8290    -1.0510     0.9600 hc         1 8DR       0.012200
     39 HAI          3.8200     5.5760    -3.5500 h4         1 8DR       0.146000
     40 HAK          3.4380     3.9730    -5.4680 ha         1 8DR       0.184000
     41 HNH1         7.9000    -0.3960     5.0260 hn         1 8DR       0.216467
     42 HNHA         7.9680     0.3990     3.6000 hn         1 8DR       0.216467
     43 HNH2         4.5520    -0.0980     5.2080 hn         1 8DR       0.391400
     44 HAH          7.2120    -1.7580    -5.8980 ha         1 8DR       0.112000
     45 CD           4.0510    -0.1260     2.8860 c3         1 8DR      -0.067200
     46 OAD          1.8340     0.1960    -2.6710 o          1 8DR      -0.666100
     47 HAJ          4.9720    -1.0920    -6.6370 ha         1 8DR       0.137000
     48 HH13         7.8340    -1.2330     3.6290 hn         1 8DR       0.216467
     49 NAT          2.4920     1.4470    -4.9650 nu         1 8DR      -0.341500
     50 HAL          8.6110    -0.2620    -4.5970 ha         1 8DR       0.110000
     51 HNAT         1.6960     0.8570    -4.8260 hn         1 8DR       0.390800
@<TRIPOS>BOND
     1     1     3 1   
     2     1     4 1   
     3     1    29 1   
     4     2     4 1   
     5     2    20 1   
     6     2    30 1   
     7     4     5 1   
     8     4    31 1   
     9     5     7 1   
    10     5    32 1   
    11     5    33 1   
    12     6     8 1   
    13     6    36 1   
    14     6    45 1   
    15     7    37 1   
    16     7    38 1   
    17     7    45 1   
    18     8    27 1   
    19     8    28 2   
    20     9    26 2   
    21    10    26 2   
    22    11    13 ar  
    23    11    15 ar  
    24    11    44 1   
    25    12    14 2   
    26    12    19 1   
    27    12    39 1   
    28    13    22 ar  
    29    13    47 1   
    30    14    21 1   
    31    14    40 1   
    32    15    24 ar  
    33    15    50 1   
    34    16    18 1   
    35    16    24 2   
    36    17    18 1   
    37    17    25 2   
    38    19    23 1   
    39    20    23 1   
    40    20    46 2   
    41    21    23 2   
    42    21    49 1   
    43    22    25 ar  
    44    22    26 1   
    45    24    25 ar  
    46    26    49 1   
    47    27    41 1   
    48    27    42 1   
    49    27    48 1   
    50    28    43 1   
    51    34    45 1   
    52    35    45 1   
    53    49    51 1   
@<TRIPOS>SUBSTRUCTURE
     1 8DR         1 TEMP              0 ****  ****    0 ROOT
