@<TRIPOS>MOLECULE
molecule
   57    62     1     0     0
SMALL
bcc


@<TRIPOS>ATOM
      1 C1           0.0000     0.0000     0.0000 c3         1 8DV       0.138500
      2 C2           1.5310     0.0000     0.0000 c3         1 8DV       0.138400
      3 C3           1.5480     1.1190     2.1190 c3         1 8DV       0.138400
      4 O1          -5.6120     5.7870     1.5060 o          1 8DV      -0.614800
      5 O2          -3.2340     5.5730     2.0610 o          1 8DV      -0.614800
      6 C11         -6.7530    -1.6830    -1.2880 ca         1 8DV      -0.127000
      7 C12         -6.0970    -2.6350    -2.0400 ca         1 8DV      -0.121000
      8 C13         -4.7080    -2.6280    -2.1210 ca         1 8DV      -0.052200
      9 C14         -2.5260    -2.9820    -2.5200 cc         1 8DV      -0.110100
     10 C15         -2.5700    -1.9060    -1.7140 cd         1 8DV      -0.189200
     11 C16         -3.9800    -1.6420    -1.4310 ca         1 8DV      -0.063800
     12 C17         -4.6910     3.3750     2.0450 cx         1 8DV      -0.322500
     13 C18         -4.9510     3.2090     3.5430 cx         1 8DV      -0.062900
     14 C19         -6.0990     3.0440     2.5440 cx         1 8DV      -0.062900
     15 C20         -4.0170     4.7520    -0.3200 cx         1 8DV      -0.282900
     16 C21         -3.6620     5.9620    -1.1860 cx         1 8DV      -0.078400
     17 C22         -2.5720     4.9690    -0.7770 cx         1 8DV      -0.078400
     18 S           -4.3960     5.0560     1.4280 s6         1 8DV       1.175000
     19 C7          -3.9240     2.2830     1.3460 ca         1 8DV       0.527600
     20 C6          -2.5430     2.2580     1.3960 ca         1 8DV      -0.398600
     21 N1          -4.5660     1.3330     0.6830 nb         1 8DV      -0.756000
     22 C8          -3.9020     0.3660     0.0640 cp         1 8DV       0.776500
     23 C9          -4.6590    -0.6760    -0.6670 cp         1 8DV      -0.106500
     24 N3          -3.7940    -3.4260    -2.7730 na         1 8DV      -0.184400
     25 C10         -6.0470    -0.7050    -0.6080 ca         1 8DV      -0.105000
     26 N2          -2.5760     0.3090     0.0840 nb         1 8DV      -0.774000
     27 C5          -1.8700     1.2260     0.7350 ca         1 8DV       0.655200
     28 N           -0.4860     1.1620     0.7580 nh         1 8DV      -0.690300
     29 C           -0.5110    -1.2860     0.6530 c3         1 8DV      -0.131100
     30 C4           0.0170     1.1300     2.1390 c3         1 8DV       0.127800
     31 O            2.0020     0.0000     1.3510 os         1 8DV      -0.421600
     32 H1          -0.3590     0.0610    -1.0200 h1         1 8DV       0.084700
     33 H2           1.8920    -0.8860    -0.5080 h1         1 8DV       0.056200
     34 H3           1.8920     0.8860    -0.5080 h1         1 8DV       0.056200
     35 H4           1.9090     2.0360     1.6690 h1         1 8DV       0.057700
     36 H5           1.9210     1.0360     3.1320 h1         1 8DV       0.057700
     37 H6          -7.8340    -1.6960    -1.2350 ha         1 8DV       0.134000
     38 H7          -6.6640    -3.3940    -2.5650 ha         1 8DV       0.126000
     39 H8          -1.6200    -3.4300    -2.9110 h4         1 8DV       0.164000
     40 H9          -1.7220    -1.3410    -1.3450 ha         1 8DV       0.179000
     41 H10         -4.9620     4.1250     4.1210 hc         1 8DV       0.095200
     42 H11         -4.5790     2.2910     3.9830 hc         1 8DV       0.095200
     43 H12         -6.4270     2.0260     2.3740 hc         1 8DV       0.095200
     44 H13         -6.8110     3.8590     2.5120 hc         1 8DV       0.095200
     45 H14         -4.5430     3.9610    -0.8400 h1         1 8DV       0.133700
     46 H15         -3.6430     6.9160    -0.6720 hc         1 8DV       0.088700
     47 H16         -3.9810     5.9060    -2.2200 hc         1 8DV       0.088700
     48 H17         -2.2250     4.3070    -1.5610 hc         1 8DV       0.088700
     49 H18         -1.8870     5.3160    -0.0130 hc         1 8DV       0.088700
     50 H19         -1.9940     3.0200     1.9350 ha         1 8DV       0.164000
     51 H20         -4.0240    -4.2130    -3.3470 hn         1 8DV       0.295700
     52 H21         -6.5790     0.0350    -0.0220 ha         1 8DV       0.152000
     53 H22         -1.5560    -1.1690     0.9120 hc         1 8DV       0.053700
     54 H23          0.0630    -1.4890     1.5490 hc         1 8DV       0.053700
     55 H24         -0.4010    -2.1110    -0.0410 hc         1 8DV       0.053700
     56 H25         -0.3300     2.0090     2.6690 h1         1 8DV       0.057700
     57 H26         -0.3440     0.2370     2.6350 h1         1 8DV       0.057700
@<TRIPOS>BOND
     1     3    31 1   
     2     3    30 1   
     3    31     2 1   
     4    30    28 1   
     5     2     1 1   
     6    28     1 1   
     7    28    27 1   
     8     1    29 1   
     9    20    27 ar  
    10    20    19 ar  
    11    27    26 ar  
    12    14    12 1   
    13    14    13 1   
    14     4    18 2   
    15    26    22 ar  
    16    19    12 1   
    17    19    21 ar  
    18    12    18 1   
    19    12    13 1   
    20     5    18 2   
    21    18    15 1   
    22    22    21 ar  
    23    22    23 1   
    24    10     9 2   
    25    10    11 1   
    26     9    24 1   
    27    15    16 1   
    28    15    17 1   
    29    11    23 ar  
    30    11     8 ar  
    31    23    25 ar  
    32    16    17 1   
    33    24     8 1   
    34     8     7 ar  
    35    25     6 ar  
    36     7     6 ar  
    37     1    32 1   
    38     2    33 1   
    39     2    34 1   
    40     3    35 1   
    41     3    36 1   
    42     6    37 1   
    43     7    38 1   
    44     9    39 1   
    45    10    40 1   
    46    13    41 1   
    47    13    42 1   
    48    14    43 1   
    49    14    44 1   
    50    15    45 1   
    51    16    46 1   
    52    16    47 1   
    53    17    48 1   
    54    17    49 1   
    55    20    50 1   
    56    24    51 1   
    57    25    52 1   
    58    29    53 1   
    59    29    54 1   
    60    29    55 1   
    61    30    56 1   
    62    30    57 1   
@<TRIPOS>SUBSTRUCTURE
     1 8DV         1 TEMP              0 ****  ****    0 ROOT
