@<TRIPOS>MOLECULE
molecule
   35    36     1     0     0
SMALL
bcc


@<TRIPOS>ATOM
      1 O            0.0000     0.0000     0.0000 o          1 8DX      -0.816300
      2 C            1.2080     0.0000     0.0000 c          1 8DX       0.871600
      3 OXT          1.8790     0.0050    -1.1630 o          1 8DX      -0.816300
      4 CA           1.9610     0.0000     1.3050 c3         1 8DX      -0.002500
      5 N            1.0800     0.4740     2.3790 nz         1 8DX      -0.779600
      6 CB           2.4330    -1.4210     1.6210 c3         1 8DX      -0.084400
      7 CAS          3.3030    -1.4010     2.8800 c3         1 8DX       0.013800
      8 CAJ          3.8860    -2.8050     3.1370 c3         1 8DX      -0.082400
      9 CAN          4.4210    -0.4050     2.7140 c          1 8DX       0.912600
     10 OAC          4.2110     0.8930     2.9830 o          1 8DX      -0.825800
     11 OAE          5.5090    -0.7740     2.3370 o          1 8DX      -0.825800
     12 OAL          2.5000    -1.0530     4.0240 os         1 8DX      -0.395600
     13 CAR          2.0670    -2.2920     4.6060 c3         1 8DX       0.105100
     14 CAQ          3.3080    -3.2030     4.5250 c3         1 8DX       0.111100
     15 CAH          1.5730    -2.1180     6.0270 c3         1 8DX      -0.080400
     16 CAP          2.7200    -1.7090     6.9530 c3         1 8DX       0.114100
     17 OAF          3.2370    -0.4400     6.5500 oh         1 8DX      -0.538800
     18 CAG          3.8200    -2.7730     6.8470 c3         1 8DX       0.126400
     19 OAK          4.2800    -2.8170     5.4980 os         1 8DX      -0.374600
     20 HA           2.8190     0.6560     1.2270 hx         1 8DX       0.160700
     21 HN           0.4910    -0.2760     2.6830 hn         1 8DX       0.437467
     22 HNA          1.6340     0.7960     3.1480 hn         1 8DX       0.437467
     23 HB           3.0110    -1.8030     0.7890 hc         1 8DX       0.065700
     24 HBA          1.5730    -2.0590     1.7870 hc         1 8DX       0.065700
     25 HAJ          4.9680    -2.7640     3.1750 hc         1 8DX       0.077200
     26 HAJA         3.5520    -3.4990     2.3750 hc         1 8DX       0.077200
     27 HAR          1.2740    -2.7140     4.0000 h1         1 8DX       0.021700
     28 HAQ          3.0560    -4.2550     4.5800 h1         1 8DX       0.033700
     29 HAH          1.1520    -3.0540     6.3740 hc         1 8DX       0.042200
     30 HAHA         0.8100    -1.3490     6.0460 hc         1 8DX       0.042200
     31 HAP          2.3620    -1.6560     7.9750 h1         1 8DX       0.013700
     32 HOAF         3.2910     0.1300     7.2990 ho         1 8DX       0.382000
     33 HAG          4.6420    -2.5120     7.5030 h1         1 8DX       0.037200
     34 HAGA         3.4180    -3.7400     7.1260 h1         1 8DX       0.037200
     35 HN3          0.5210     1.2330     2.0420 hn         1 8DX       0.437467
@<TRIPOS>BOND
     1     1     2 1
     2     2     3 1
     3     2     4 1
     4     4     5 1
     5     4     6 1
     6     6     7 1
     7     7     8 1
     8     7     9 1
     9     7    12 1
    10     8    14 1
    11     9    10 1
    12     9    11 1
    13    12    13 1
    14    13    14 1
    15    13    15 1
    16    14    19 1
    17    15    16 1
    18    16    17 1
    19    16    18 1
    20    18    19 1
    21     4    20 1
    22     5    21 1
    23     5    22 1
    24     6    23 1
    25     6    24 1
    26     8    25 1
    27     8    26 1
    28    13    27 1
    29    14    28 1
    30    15    29 1
    31    15    30 1
    32    16    31 1
    33    17    32 1
    34    18    33 1
    35    18    34 1
    36    35     5 1
@<TRIPOS>SUBSTRUCTURE
     1 8DX         1 TEMP              0 ****  ****    0 ROOT
