@<TRIPOS>MOLECULE
molecule
   56    58     1     0     0
SMALL
bcc


@<TRIPOS>ATOM
      1 C1           1.8130     0.0000     0.0000 c3         1 8DY      -0.192900
      2 C2           2.3230     0.0000     1.4420 c3         1 8DY       0.177800
      3 C3           2.4190    -2.4170     1.5570 c3         1 8DY       0.155600
      4 O1          -0.4990    -1.2370     0.4900 o          1 8DY      -0.608800
      5 O2          -2.6050    -2.4220    -9.6130 o          1 8DY      -0.578100
      6 C11         -1.5020     0.0010    -5.8230 cp         1 8DY       0.331500
      7 C12         -1.5740     1.2090    -6.5260 ca         1 8DY       0.347900
      8 C13         -2.1680     0.0730    -8.4280 ca         1 8DY       0.627900
      9 C14         -2.1000    -1.1420    -7.7250 ca         1 8DY       0.239500
     10 C15         -2.3980    -2.4150    -8.4140 c          1 8DY       0.579600
     11 C16         -2.6290    -4.7810    -8.3800 ca         1 8DY       0.052600
     12 C17         -1.9960    -5.9300    -7.9230 ca         1 8DY      -0.145000
     13 C18         -2.1860    -7.1290    -8.5820 ca         1 8DY      -0.111500
     14 C19         -3.0020    -7.1860    -9.6950 ca         1 8DY      -0.145000
     15 C20         -3.6330    -6.0440   -10.1540 ca         1 8DY      -0.111500
     16 C21         -3.4530    -4.8430    -9.4960 ca         1 8DY      -0.145000
     17 N            1.8340    -1.2000     2.1340 n3         1 8DY      -0.737600
     18 C            2.3230     1.2490    -0.7210 c3         1 8DY      -0.076100
     19 O           -0.4990     1.2370     0.4900 o          1 8DY      -0.608800
     20 C10         -0.6120    -1.1990    -2.3740 ca         1 8DY      -0.033500
     21 C4           2.1010    -1.1210     3.5770 c3         1 8DY       0.155600
     22 C5          -0.4400    -0.0000    -1.7060 ca         1 8DY      -0.291500
     23 C6          -0.6130     1.1990    -2.3730 ca         1 8DY      -0.033500
     24 C7          -0.9570     1.2060    -3.7100 ca         1 8DY      -0.128500
     25 C8          -1.1310     0.0000    -4.3880 cp         1 8DY      -0.094500
     26 C9          -0.9510    -1.2050    -3.7120 ca         1 8DY      -0.128500
     27 N1          -1.9040     1.2150    -7.8030 nb         1 8DY      -0.678000
     28 N2          -2.5130     0.0800    -9.7670 nv         1 8DY      -1.062500
     29 N3          -1.7690    -1.1420    -6.4380 nb         1 8DY      -0.644000
     30 N4          -2.4400    -3.5660    -7.7150 ns         1 8DY      -0.457100
     31 S            0.0000     0.0000     0.0000 sy         1 8DY       1.215300
     32 H1           2.1740    -0.8850    -0.5110 h1         1 8DY       0.102700
     33 H2           3.4060     0.0010     1.4420 h1         1 8DY       0.051200
     34 H3           1.9610     0.8840     1.9530 h1         1 8DY       0.051200
     35 H4           2.2360    -2.4340     0.4890 h1         1 8DY       0.035533
     36 H5           1.9660    -3.2880     2.0150 h1         1 8DY       0.035533
     37 H6           3.4870    -2.4260     1.7400 h1         1 8DY       0.035533
     38 H7          -1.3600     2.1420    -6.0190 h4         1 8DY       0.037100
     39 H8          -1.3550    -5.8860    -7.0520 ha         1 8DY       0.146000
     40 H9          -1.6930    -8.0260    -8.2250 ha         1 8DY       0.132500
     41 H10         -3.1470    -8.1280   -10.2110 ha         1 8DY       0.129000
     42 H11         -4.2750    -6.0930   -11.0260 ha         1 8DY       0.132500
     43 H12         -3.9470    -3.9490    -9.8560 ha         1 8DY       0.146000
     44 H14          3.3270     1.4770    -0.3820 hc         1 8DY       0.050033
     45 H15          2.3350     1.0690    -1.7890 hc         1 8DY       0.050033
     46 H16          1.6700     2.0850    -0.5030 hc         1 8DY       0.050033
     47 H17         -0.4730    -2.1350    -1.8470 ha         1 8DY       0.154500
     48 H18          1.7760    -2.0370     4.0550 h1         1 8DY       0.035533
     49 H19          3.1630    -0.9850     3.7410 h1         1 8DY       0.035533
     50 H20          1.5610    -0.2820     3.9990 h1         1 8DY       0.035533
     51 H21         -0.4770     2.1360    -1.8450 ha         1 8DY       0.154500
     52 H22         -1.0920     2.1460    -4.2310 ha         1 8DY       0.145000
     53 H23         -1.0850    -2.1450    -4.2340 ha         1 8DY       0.145000
     54 H24         -3.4700     0.1950   -10.0360 hn         1 8DY       0.450300
     55 H25         -1.8020     0.0080   -10.4670 hn         1 8DY       0.450300
     56 H26         -2.2280    -3.5620    -6.7370 hn         1 8DY       0.339500
@<TRIPOS>BOND
     1    14    15 ar
     2    14    13 ar
     3    15    16 ar
     4    13    12 ar
     5    16    11 ar
     6    12    11 ar
     7    11    30 1
     8    30    10 1
     9     5    10 2
    10    10     9 1
    11     9    29 ar
    12     9     8 ar
    13    29     6 ar
    14    28     8 1
    15     8    27 ar
    16    26    20 ar
    17    26    25 ar
    18     6    25 1
    19     6     7 ar
    20    20    22 ar
    21    27     7 ar
    22    25    24 ar
    23     4    31 2
    24    22    31 1
    25    22    23 ar
    26    24    23 ar
    27    21    17 1
    28    31    19 2
    29    31     1 1
    30     2     1 1
    31     2    17 1
    32     1    18 1
    33    17     3 1
    34     1    32 1
    35     2    33 1
    36     2    34 1
    37     3    35 1
    38     3    36 1
    39     3    37 1
    40     7    38 1
    41    12    39 1
    42    13    40 1
    43    14    41 1
    44    15    42 1
    45    16    43 1
    46    18    44 1
    47    18    45 1
    48    18    46 1
    49    20    47 1
    50    21    48 1
    51    21    49 1
    52    21    50 1
    53    23    51 1
    54    24    52 1
    55    26    53 1
    56    28    54 1
    57    28    55 1
    58    30    56 1
@<TRIPOS>SUBSTRUCTURE
     1 8DY         1 TEMP              0 ****  ****    0 ROOT
