@<TRIPOS>MOLECULE
8E1
   38    41     1     0     0
SMALL
bcc


@<TRIPOS>ATOM
      1 C1           0.0000     0.0000     0.0000 ca         1 8E1       0.056500
      2 N1          -7.5090     0.0020     3.6000 nc         1 8E1      -0.416100
      3 O1           1.3790    -0.5440    -2.4990 o          1 8E1      -0.500300
      4 S1           2.2630     0.0000    -1.5270 sy         1 8E1       0.932200
      5 C2           1.3830     0.0000     0.0000 ca         1 8E1      -0.282500
      6 O2           3.5460    -0.5440    -1.2510 o          1 8E1      -0.500300
      7 C3           2.0770     0.0000     1.1950 ca         1 8E1       0.056500
      8 C4           1.3910    -0.0000     2.3950 ca         1 8E1      -0.181000
      9 C5           0.0020    -0.0000     2.3980 ca         1 8E1       0.094600
     10 C6          -2.0580    -0.0000     3.6100 c2         1 8E1      -0.008000
     11 C7          -2.7390    -0.0000     4.7930 cc         1 8E1      -0.212400
     12 C8          -4.2070    -0.0000     4.9870 ca         1 8E1      -0.059800
     13 C9          -4.4240    -0.0020     6.3660 ca         1 8E1      -0.089400
     14 C10         -5.7340    -0.0020     6.8470 ca         1 8E1      -0.102000
     15 C11         -6.7910    -0.0000     5.9920 ca         1 8E1       0.004000
     16 C12         -6.5980     0.0010     4.5930 ca         1 8E1       0.049400
     17 C13         -5.2910     0.0000     4.0990 ca         1 8E1       0.026900
     18 C14         -7.0780     0.0040     2.3950 cd         1 8E1       0.421100
     19 C15         -2.1750    -0.0010     6.1490 c          1 8E1       0.625700
     20 N3           2.5070     1.5820    -1.9510 nz         1 8E1      -0.133500
     21 C           -0.6920     0.0000     1.1950 ca         1 8E1      -0.181000
     22 N           -0.6950    -0.0000     3.6090 nu         1 8E1      -0.125400
     23 O           -0.9900    -0.0020     6.4320 o          1 8E1      -0.685500
     24 N2          -3.1970    -0.0010     7.0210 ns         1 8E1       0.033900
     25 S           -5.3720     0.0020     2.3410 ss         1 8E1      -0.243100
     26 H1          -0.5410     0.0000    -0.9390 ha         1 8E1       0.122500
     27 H2           3.1610     0.0000     1.1920 ha         1 8E1       0.122500
     28 H3           1.9360    -0.0000     3.3310 ha         1 8E1       0.142500
     29 H4          -2.6000    -0.0010     2.6730 h4         1 8E1       0.149000
     30 H5          -5.9110    -0.0030     7.9150 ha         1 8E1       0.118000
     31 H6          -7.7990    -0.0000     6.3910 ha         1 8E1       0.123000
     32 H7          -7.7160     0.0060     1.5200 h5         1 8E1       0.037800
     33 H8           3.0390     2.0400    -1.2380 hn         1 8E1       0.311467
     34 H9           3.0060     1.6210    -2.8180 hn         1 8E1       0.311467
     35 H10         -1.7760    -0.0000     1.1940 ha         1 8E1       0.142500
     36 H11         -0.1940    -0.0000     4.4750 hn         1 8E1       0.337800
     37 H12         -3.0890    -0.0020     8.0160 hn         1 8E1       0.186500
     38 H33          1.6230     2.0410    -2.0480 hn         1 8E1       0.311467
@<TRIPOS>BOND
     1     1     5 ar  
     2     1    21 ar  
     3     1    26 1   
     4     2    16 1   
     5     2    18 2   
     6     3     4 2   
     7     4     5 1   
     8     4     6 2   
     9     4    20 1   
    10     5     7 ar  
    11     7     8 ar  
    12     7    27 1   
    13     8     9 ar  
    14     8    28 1   
    15     9    21 ar  
    16     9    22 1   
    17    10    11 2   
    18    10    22 1   
    19    10    29 1   
    20    11    12 1   
    21    11    19 1   
    22    12    13 ar  
    23    12    17 ar  
    24    13    14 ar  
    25    13    24 1   
    26    14    15 ar  
    27    14    30 1   
    28    15    16 ar  
    29    15    31 1   
    30    16    17 ar  
    31    17    25 1   
    32    18    25 1   
    33    18    32 1   
    34    19    23 2   
    35    19    24 1   
    36    20    33 1   
    37    20    34 1   
    38    20    38 1   
    39    21    35 1   
    40    22    36 1   
    41    24    37 1   
@<TRIPOS>SUBSTRUCTURE
     1 8E1         1 TEMP              0 ****  ****    0 ROOT
