@<TRIPOS>MOLECULE
molecule
   48    48     1     0     0
SMALL
bcc


@<TRIPOS>ATOM
      1 C9           0.0000     0.0000     0.0000 c3         1 8E4      -0.085400
      2 C7           2.0400     0.0000    -1.4420 c3         1 8E4      -0.070700
      3 C5           5.3720    -0.3800    -2.9670 ca         1 8E4       0.155100
      4 C1           8.3580     0.5910    -6.2850 c3         1 8E4      -0.108400
      5 C15          8.1020    -0.6300    -3.3320 ca         1 8E4      -0.162000
      6 O2           1.5180     2.4090    -4.2750 oh         1 8E4      -0.622800
      7 C11          1.6350     1.3070    -2.1260 c3         1 8E4      -0.109400
      8 C8           1.5290     0.0000     0.0000 c3         1 8E4      -0.077400
      9 C10         -0.5110     0.0000     1.4420 c3         1 8E4      -0.091100
     10 C6           3.5640    -0.1250    -1.4440 c3         1 8E4       0.126400
     11 O1           4.0310    -0.2570    -2.7880 os         1 8E4      -0.322900
     12 C4           5.8930    -0.5070    -4.2460 ca         1 8E4      -0.149000
     13 C13          6.2230    -0.3730    -1.8710 ca         1 8E4      -0.193000
     14 C14          7.5860    -0.4980    -2.0560 ca         1 8E4      -0.078000
     15 C3           7.2580    -0.6260    -4.4260 ca         1 8E4      -0.132300
     16 C2           7.8250    -0.7640    -5.8150 c3         1 8E4       0.216400
     17 O            8.8900    -1.7170    -5.8030 oh         1 8E4      -0.619800
     18 N            9.3330     1.7810    -8.1910 nz         1 8E4      -0.802600
     19 H1          -0.4490    -0.8200    -0.5470 hc         1 8E4       0.041200
     20 H2          -0.3120     0.9040    -0.5100 hc         1 8E4       0.041200
     21 H3           1.7270    -0.9360    -1.8890 hc         1 8E4       0.067700
     22 H5           9.2160     0.8780    -5.6890 hc         1 8E4       0.071200
     23 H6           9.1720    -0.7250    -3.4740 ha         1 8E4       0.139000
     24 H7           0.6330     2.5910    -4.0040 ho         1 8E4       0.404000
     25 H10          2.2550     2.0650    -1.6640 hc         1 8E4       0.055700
     26 H11          0.5860     1.5530    -2.0100 hc         1 8E4       0.055700
     27 H12          1.8280     0.9790     0.3560 hc         1 8E4       0.047700
     28 H13          1.9540    -0.7660     0.6380 hc         1 8E4       0.047700
     29 H14         -1.2590     0.7810     1.5030 hc         1 8E4       0.040033
     30 H15         -0.9530    -0.9620     1.6680 hc         1 8E4       0.040033
     31 H16          0.3140     0.1790     2.1220 hc         1 8E4       0.040033
     32 H17          3.9740     0.7540    -0.9620 h1         1 8E4       0.041200
     33 H18          3.8670    -0.9850    -0.8600 h1         1 8E4       0.041200
     34 H19          5.2310    -0.5440    -5.1030 ha         1 8E4       0.145000
     35 H20          5.8170    -0.2950    -0.8700 ha         1 8E4       0.152000
     36 H21          8.2920    -0.4720    -1.2350 ha         1 8E4       0.147000
     37 H22          7.0450    -1.1020    -6.4860 h1         1 8E4       0.053700
     38 H23          8.6630    -2.4310    -5.2290 ho         1 8E4       0.443000
     39 H24          7.8700     0.0630    -8.0500 hx         1 8E4       0.136200
     40 H25          9.6700    -0.1870    -7.8210 hx         1 8E4       0.136200
     41 H26         10.0520     1.5950    -8.8610 hn         1 8E4       0.460800
     42 H27          8.6150     2.2660    -8.6920 hn         1 8E4       0.460800
     43 C12          2.0170     1.2480    -3.6070 c3         1 8E4       0.138400
     44 C            8.8200     0.4810    -7.7400 c3         1 8E4       0.044800
     45 H8           1.5210     0.3780    -4.0210 h1         1 8E4       0.052700
     46 H9           3.0840     1.2060    -3.7870 h1         1 8E4       0.052700
     47 HN3          9.6130     2.2810    -7.3710 hn         1 8E4       0.460800
     48 H4           7.6100     1.3730    -6.2500 hc         1 8E4       0.071200
@<TRIPOS>BOND
     1    43     6 1
     2    43     7 1
     3     2     7 1
     4     2    10 1
     5     2     8 1
     6    18    44 1
     7     1     8 1
     8     1     9 1
     9    10    11 1
    10    44     4 1
    11     4    16 1
    12    17    16 1
    13    11     3 1
    14    12     3 ar
    15    12    15 ar
    16    16    15 1
    17     3    13 ar
    18    15     5 ar
    19    13    14 ar
    20     5    14 ar
    21     1    19 1
    22     1    20 1
    23     2    21 1
    24     4    48 1
    25     4    22 1
    26     5    23 1
    27     6    24 1
    28    43    45 1
    29    43    46 1
    30     7    25 1
    31     7    26 1
    32     8    27 1
    33     8    28 1
    34     9    29 1
    35     9    30 1
    36     9    31 1
    37    10    32 1
    38    10    33 1
    39    12    34 1
    40    13    35 1
    41    14    36 1
    42    16    37 1
    43    17    38 1
    44    44    39 1
    45    44    40 1
    46    18    41 1
    47    18    42 1
    48    47    18 1
@<TRIPOS>SUBSTRUCTURE
     1 8E4         1 TEMP              0 ****  ****    0 ROOT
