@<TRIPOS>MOLECULE
8E4
   48    48     1     0     0
SMALL
bcc


@<TRIPOS>ATOM
      1 C9           0.0000     0.0000     0.0000 c3         1 8E4      -0.035400
      2 C7           2.0400     0.0000    -1.4420 c3         1 8E4      -0.054700
      3 C5           5.3720    -0.3800    -2.9670 ca         1 8E4       0.165100
      4 C1           8.3580     0.5910    -6.2850 c3         1 8E4      -0.041400
      5 C15          8.1020    -0.6300    -3.3320 ca         1 8E4      -0.140000
      6 O2           1.5180     2.4090    -4.2750 oh         1 8E4      -0.606800
      7 C11          1.6350     1.3070    -2.1260 c3         1 8E4      -0.064400
      8 C8           1.5290     0.0000     0.0000 c3         1 8E4      -0.024400
      9 C10         -0.5110     0.0000     1.4420 c3         1 8E4       0.005900
     10 C6           3.5640    -0.1250    -1.4440 c3         1 8E4       0.189400
     11 O1           4.0310    -0.2570    -2.7880 os         1 8E4      -0.295900
     12 C4           5.8930    -0.5070    -4.2460 ca         1 8E4      -0.128000
     13 C13          6.2230    -0.3730    -1.8710 ca         1 8E4      -0.180000
     14 C14          7.5860    -0.4980    -2.0560 ca         1 8E4      -0.041000
     15 C3           7.2580    -0.6260    -4.4260 ca         1 8E4      -0.148300
     16 C2           7.8250    -0.7640    -5.8150 c3         1 8E4       0.273400
     17 O            8.8900    -1.7170    -5.8030 oh         1 8E4      -0.609800
     18 N            9.3330     1.7810    -8.1910 nz         1 8E4       0.102400
     19 H1          -0.4490    -0.8200    -0.5470 hc         1 8E4       0.014200
     20 H2          -0.3120     0.9040    -0.5100 hc         1 8E4       0.014200
     21 H3           1.7270    -0.9360    -1.8890 hc         1 8E4       0.041700
     22 H5           9.2160     0.8780    -5.6890 hc         1 8E4       0.037700
     23 H6           9.1720    -0.7250    -3.4740 ha         1 8E4       0.115000
     24 H7           0.6330     2.5910    -4.0040 ho         1 8E4       0.395000
     25 H10          2.2550     2.0650    -1.6640 hc         1 8E4       0.030700
     26 H11          0.5860     1.5530    -2.0100 hc         1 8E4       0.030700
     27 H12          1.8280     0.9790     0.3560 hc         1 8E4       0.020700
     28 H13          1.9540    -0.7660     0.6380 hc         1 8E4       0.020700
     29 H14         -1.2590     0.7810     1.5030 hc         1 8E4       0.006367
     30 H15         -0.9530    -0.9620     1.6680 hc         1 8E4       0.006367
     31 H16          0.3140     0.1790     2.1220 hc         1 8E4       0.006367
     32 H17          3.9740     0.7540    -0.9620 h1         1 8E4       0.008200
     33 H18          3.8670    -0.9850    -0.8600 h1         1 8E4       0.008200
     34 H19          5.2310    -0.5440    -5.1030 ha         1 8E4       0.120000
     35 H20          5.8170    -0.2950    -0.8700 ha         1 8E4       0.132000
     36 H21          8.2920    -0.4720    -1.2350 ha         1 8E4       0.113000
     37 H22          7.0450    -1.1020    -6.4860 h1         1 8E4       0.020700
     38 H23          8.6630    -2.4310    -5.2290 ho         1 8E4       0.433000
     39 H24          7.8700     0.0630    -8.0500 hx         1 8E4       0.113200
     40 H25          9.6700    -0.1870    -7.8210 hx         1 8E4       0.113200
     41 H26         10.0520     1.5950    -8.8610 hn         1 8E4       0.224467
     42 H27          8.6150     2.2660    -8.6920 hn         1 8E4       0.224467
     43 C12          2.0170     1.2480    -3.6070 c3         1 8E4       0.205400
     44 C            8.8200     0.4810    -7.7400 c3         1 8E4      -0.115200
     45 H8           1.5210     0.3780    -4.0210 h1         1 8E4       0.015200
     46 H9           3.0840     1.2060    -3.7870 h1         1 8E4       0.015200
     47 HN3          9.6130     2.2810    -7.3710 hn         1 8E4       0.224467
     48 H4           7.6100     1.3730    -6.2500 hc         1 8E4       0.037700
@<TRIPOS>BOND
     1     1     8 1   
     2     1     9 1   
     3     1    19 1   
     4     1    20 1   
     5     2     7 1   
     6     2     8 1   
     7     2    10 1   
     8     2    21 1   
     9     3    11 1   
    10     3    12 ar  
    11     3    13 ar  
    12     4    16 1   
    13     4    22 1   
    14     4    44 1   
    15     4    48 1   
    16     5    14 ar  
    17     5    15 ar  
    18     5    23 1   
    19     6    24 1   
    20     6    43 1   
    21     7    25 1   
    22     7    26 1   
    23     7    43 1   
    24     8    27 1   
    25     8    28 1   
    26     9    29 1   
    27     9    30 1   
    28     9    31 1   
    29    10    11 1   
    30    10    32 1   
    31    10    33 1   
    32    12    15 ar  
    33    12    34 1   
    34    13    14 ar  
    35    13    35 1   
    36    14    36 1   
    37    15    16 1   
    38    16    17 1   
    39    16    37 1   
    40    17    38 1   
    41    18    41 1   
    42    18    42 1   
    43    18    44 1   
    44    18    47 1   
    45    39    44 1   
    46    40    44 1   
    47    43    45 1   
    48    43    46 1   
@<TRIPOS>SUBSTRUCTURE
     1 8E4         1 TEMP              0 ****  ****    0 ROOT
