@<TRIPOS>MOLECULE
8E6
   36    39     1     0     0
SMALL
bcc


@<TRIPOS>ATOM
      1 C02          0.0000     0.0000     0.0000 c          1 8E6       0.339700
      2 C04          1.4730     0.0000     0.0000 ca         1 8E6      -0.150600
      3 C05          2.1760     0.0000     1.2030 ca         1 8E6      -0.146000
      4 C06          3.5600    -0.0000     1.2050 ca         1 8E6       0.079900
      5 C08          4.2650     0.0000     0.0130 ca         1 8E6      -0.011000
      6 C09          3.5910     0.0000    -1.1970 ca         1 8E6      -0.264200
      7 C11          2.8630    -0.0000    -3.2880 cc         1 8E6       0.408400
      8 C12          2.8360     0.0020    -4.7570 cc         1 8E6      -0.118000
      9 C13          1.7120     0.0060    -5.5240 cd         1 8E6      -0.005000
     10 C14          1.9610     0.0080    -6.8860 cd         1 8E6      -0.143300
     11 C15          3.2740     0.0060    -7.2030 cc         1 8E6       0.057600
     12 C17          3.7910     0.0050    -8.6300 c3         1 8E6       0.067900
     13 C18          2.6360    -0.3870    -9.5560 c3         1 8E6       0.143800
     14 C20          0.8680     0.0140    -7.9470 c3         1 8E6       0.232100
     15 C22          2.1850    -0.0040    -1.2190 ca         1 8E6       0.154400
     16 F07          4.2290     0.0010     2.3780 f          1 8E6      -0.106900
     17 N01         -0.6730    -0.0010     1.1670 nz         1 8E6       0.200600
     18 N10          3.9980     0.0000    -2.5190 na         1 8E6       0.281700
     19 N19          1.4570     0.4270    -9.2260 n7         1 8E6      -0.581200
     20 N21          1.8030    -0.0040    -2.5090 nd         1 8E6      -0.533100
     21 O03         -0.6080     0.0050    -1.0520 o          1 8E6      -0.401100
     22 S16          4.2470     0.0090    -5.8030 ss         1 8E6      -0.208800
     23 H1           1.9240    -0.0010     2.2570 ha         1 8E6       0.132000
     24 H2           5.3460    -0.0050     0.0810 ha         1 8E6       0.134000
     25 H3           0.7130     0.0060    -5.1060 ha         1 8E6       0.138000
     26 H4           4.5960    -0.7140    -8.7250 hc         1 8E6       0.037200
     27 H5           4.1470     0.9950    -8.8890 hc         1 8E6       0.037200
     28 H6           2.3920    -1.4260    -9.3720 h1         1 8E6       0.021200
     29 H7           2.9280    -0.1630   -10.5750 h1         1 8E6       0.021200
     30 H8           0.4520    -0.9820    -8.0440 h1         1 8E6       0.017700
     31 H9           0.0900     0.7130    -7.6630 h1         1 8E6       0.017700
     32 H10         -0.4310    -0.8180     1.6920 hn         1 8E6       0.242800
     33 H11         -0.4310     0.8160     1.6920 hn         1 8E6       0.242800
     34 H12          4.9310     0.1570    -2.8480 hn         1 8E6       0.155700
     35 H13          0.7750     0.3360    -9.9530 hn         1 8E6       0.264800
     36 H013        -1.6570    -0.0050     0.9850 hn         1 8E6       0.242800
@<TRIPOS>BOND
     1     1     2 1   
     2     1    17 1   
     3     1    21 2   
     4     2     3 ar  
     5     2    15 ar  
     6     3     4 ar  
     7     3    23 1   
     8     4     5 ar  
     9     4    16 1   
    10     5     6 ar  
    11     5    24 1   
    12     6    15 ar  
    13     6    18 1   
    14     7     8 1   
    15     7    18 1   
    16     7    20 2   
    17     8     9 2   
    18     8    22 1   
    19     9    10 1   
    20     9    25 1   
    21    10    11 2   
    22    10    14 1   
    23    11    12 1   
    24    11    22 1   
    25    12    13 1   
    26    12    26 1   
    27    12    27 1   
    28    13    19 1   
    29    13    28 1   
    30    13    29 1   
    31    14    19 1   
    32    14    30 1   
    33    14    31 1   
    34    15    20 1   
    35    17    32 1   
    36    17    33 1   
    37    17    36 1   
    38    18    34 1   
    39    19    35 1   
@<TRIPOS>SUBSTRUCTURE
     1 8E6         1 TEMP              0 ****  ****    0 ROOT
