@<TRIPOS>MOLECULE
8E7
   41    40     1     0     0
SMALL
bcc


@<TRIPOS>ATOM
      1 C14          0.0000     0.0000     0.0000 c3         1 8E7       0.005900
      2 C13          1.5310     0.0000     0.0000 c3         1 8E7      -0.028400
      3 C12          2.0400     0.0000     1.4430 c3         1 8E7      -0.029400
      4 C11          3.5710    -0.0000     1.4430 c3         1 8E7      -0.029400
      5 C10          4.0800    -0.0000     2.8840 c3         1 8E7      -0.029400
      6 S01         13.9340     0.0010     8.6970 sh         1 8E7      -0.409900
      7 C02         12.1210     0.0010     8.6490 c3         1 8E7       0.102700
      8 C03         11.6500     0.0000     7.1930 c3         1 8E7       0.163800
      9 N04         10.1810     0.0010     7.1540 n7         1 8E7      -0.588200
     10 C05          9.6910    -0.0000     5.7690 c3         1 8E7       0.144800
     11 C06          8.1600    -0.0000     5.7690 c3         1 8E7      -0.030400
     12 C07          7.6510    -0.0000     4.3270 c3         1 8E7      -0.027400
     13 C08          6.1200    -0.0000     4.3270 c3         1 8E7      -0.028400
     14 C09          5.6110    -0.0000     2.8850 c3         1 8E7      -0.029400
     15 H1          -0.3610     0.0000    -1.0210 hc         1 8E7       0.000033
     16 H2          -0.3610     0.8850     0.5110 hc         1 8E7       0.000033
     17 H3          -0.3610    -0.8850     0.5110 hc         1 8E7       0.000033
     18 H4           1.8920     0.8850    -0.5110 hc         1 8E7       0.011700
     19 H5           1.8920    -0.8850    -0.5110 hc         1 8E7       0.011700
     20 H6           1.6790     0.8850     1.9530 hc         1 8E7       0.014700
     21 H7           1.6790    -0.8850     1.9530 hc         1 8E7       0.014700
     22 H8           3.9320     0.8850     0.9320 hc         1 8E7       0.014700
     23 H9           3.9320    -0.8850     0.9320 hc         1 8E7       0.014700
     24 H10          3.7190     0.8840     3.3950 hc         1 8E7       0.014700
     25 H11          3.7190    -0.8840     3.3950 hc         1 8E7       0.014700
     26 H12         14.3430     0.0010     9.9600 hs         1 8E7       0.188800
     27 H13         11.7470    -0.8840     9.1500 h1         1 8E7       0.034700
     28 H14         11.7460     0.8850     9.1490 h1         1 8E7       0.034700
     29 H15         12.0240    -0.8840     6.6920 h1         1 8E7       0.021200
     30 H16         12.0250     0.8850     6.6920 h1         1 8E7       0.021200
     31 H17          9.8340     0.8100     7.6300 hn         1 8E7       0.252800
     32 H19         10.0520    -0.8850     5.2590 h1         1 8E7       0.008200
     33 H20         10.0520     0.8840     5.2580 h1         1 8E7       0.008200
     34 H21          7.7990    -0.8850     6.2800 hc         1 8E7       0.019700
     35 H22          7.7990     0.8850     6.2800 hc         1 8E7       0.019700
     36 H23          8.0120    -0.8850     3.8160 hc         1 8E7       0.015200
     37 H24          8.0120     0.8850     3.8160 hc         1 8E7       0.015200
     38 H25          5.7590     0.8850     4.8380 hc         1 8E7       0.015700
     39 H26          5.7590    -0.8850     4.8380 hc         1 8E7       0.015700
     40 H27          5.9720     0.8840     2.3740 hc         1 8E7       0.014700
     41 H28          5.9720    -0.8840     2.3740 hc         1 8E7       0.014700
@<TRIPOS>BOND
     1     1     2 1   
     2     1    15 1   
     3     1    16 1   
     4     1    17 1   
     5     2     3 1   
     6     2    18 1   
     7     2    19 1   
     8     3     4 1   
     9     3    20 1   
    10     3    21 1   
    11     4     5 1   
    12     4    22 1   
    13     4    23 1   
    14     5    14 1   
    15     5    24 1   
    16     5    25 1   
    17     6     7 1   
    18     6    26 1   
    19     7     8 1   
    20     7    27 1   
    21     7    28 1   
    22     8     9 1   
    23     8    29 1   
    24     8    30 1   
    25     9    10 1   
    26     9    31 1   
    27    10    11 1   
    28    10    32 1   
    29    10    33 1   
    30    11    12 1   
    31    11    34 1   
    32    11    35 1   
    33    12    13 1   
    34    12    36 1   
    35    12    37 1   
    36    13    14 1   
    37    13    38 1   
    38    13    39 1   
    39    14    40 1   
    40    14    41 1   
@<TRIPOS>SUBSTRUCTURE
     1 8E7         1 TEMP              0 ****  ****    0 ROOT
