@<TRIPOS>MOLECULE
8E8
   59    63     1     0     0
SMALL
bcc


@<TRIPOS>ATOM
      1 N1           0.0000     0.0000     0.0000 nb         1 8E8      -0.740000
      2 C2           1.3220     0.0000     0.0000 ca         1 8E8       0.710900
      3 N3           2.0310     0.0000     1.1070 nb         1 8E8      -0.691000
      4 C4           1.4330     0.0010     2.2990 ca         1 8E8       0.348800
      5 C5           0.0260     0.0020     2.3470 ca         1 8E8      -0.547500
      6 C6          -0.6870     0.0010     1.1370 ca         1 8E8       0.614200
      7 NAB         -2.0690     0.0030     1.1300 nv         1 8E8      -0.546500
      8 OAC          5.4660     3.1640     4.5260 o          1 8E8      -0.641100
      9 CAD          7.2180     2.0820     5.6780 c3         1 8E8      -0.100400
     10 CAE         -6.6660    -3.0930     8.3170 ca         1 8E8      -0.140000
     11 CAF         -7.6020    -2.1580     7.9180 ca         1 8E8      -0.060500
     12 CAG         -5.3550    -2.9870     7.8920 ca         1 8E8      -0.060500
     13 CAI         -7.2310    -1.1160     7.0920 ca         1 8E8      -0.168500
     14 CAJ         -4.9790    -1.9490     7.0600 ca         1 8E8      -0.168500
     15 CAK         -3.9680    -0.8220     4.2840 ca         1 8E8      -0.122000
     16 CAL         -3.3160     0.8400     5.8990 ca         1 8E8      -0.122000
     17 CAM         -2.6890    -0.8260     3.7680 ca         1 8E8      -0.076000
     18 CAN         -2.0370     0.8430     5.3840 ca         1 8E8      -0.076000
     19 CAO          5.0380    -1.2640     5.2490 c3         1 8E8      -0.035400
     20 CAP          3.5630    -1.2450     4.8440 c3         1 8E8      -0.043400
     21 CAQ          5.3460    -0.0260     6.0990 c3         1 8E8       0.041000
     22 CAR          3.5670     1.2540     4.8370 c3         1 8E8       0.035000
     23 NAU          0.7760     0.0050     4.4550 nc         1 8E8      -0.628100
     24 CAY         -5.9160    -1.0060     6.6630 ca         1 8E8       0.141100
     25 CAZ         -4.2860     0.0120     5.3480 ca         1 8E8       0.114100
     26 CBA         -1.7150     0.0070     4.3160 ca         1 8E8      -0.108900
     27 CBB         -0.3390     0.0050     3.7640 cd         1 8E8       0.485500
     28 CBE          3.2790     0.0020     4.0020 c3         1 8E8      -0.048000
     29 NBF          1.8730     0.0030     3.5890 na         1 8E8       0.386200
     30 NBG          4.9410     1.1730     5.3520 n          1 8E8      -0.157800
     31 H1           1.8410    -0.0010    -0.9500 h5         1 8E8      -0.003900
     32 H2           7.4960     4.2130     5.7250 hc         1 8E8       0.009367
     33 H3           8.0180     3.4440     4.2200 hc         1 8E8       0.009367
     34 H4           9.0000     3.2840     5.6830 hc         1 8E8       0.009367
     35 H5          -2.5720     0.5190     1.8240 hn         1 8E8       0.284300
     36 H6          -2.5650    -0.4750     0.4040 hn         1 8E8       0.284300
     37 H7           7.7090     1.2170     5.2480 hc         1 8E8       0.027200
     38 H8           7.1870     1.9800     6.7560 hc         1 8E8       0.027200
     39 H10         -8.6290    -2.2440     8.2530 ha         1 8E8       0.102500
     40 H11         -4.6230    -3.7220     8.2040 ha         1 8E8       0.102500
     41 H12         -7.9660    -0.3820     6.7810 ha         1 8E8       0.120500
     42 H13         -3.9520    -1.8660     6.7270 ha         1 8E8       0.120500
     43 H14         -4.7260    -1.4680     3.8570 ha         1 8E8       0.121000
     44 H15         -3.5670     1.4890     6.7290 ha         1 8E8       0.121000
     45 H16         -2.4410    -1.4770     2.9380 ha         1 8E8       0.120500
     46 H17         -1.2820     1.4900     5.8130 ha         1 8E8       0.120500
     47 H18          5.6560    -1.2530     4.3590 hc         1 8E8       0.024200
     48 H19          5.2420    -2.1570     5.8270 hc         1 8E8       0.024200
     49 H20          3.3380    -2.1310     4.2630 hc         1 8E8       0.032700
     50 H21          2.9460    -1.2250     5.7350 hc         1 8E8       0.032700
     51 H22          6.4090     0.0170     6.3040 h1         1 8E8       0.027200
     52 H23          4.7930    -0.0780     7.0290 h1         1 8E8       0.027200
     53 H24          2.8720     1.3050     5.6660 h1         1 8E8       0.049700
     54 H25          3.4650     2.1350     4.2160 h1         1 8E8       0.049700
     55 H26          3.9180    -0.0020     3.1270 h1         1 8E8       0.069700
     56 OAV         -5.5480     0.0180     5.8500 os         1 8E8      -0.223200
     57 CAW          5.8120     2.1800     5.1440 c          1 8E8       0.588100
     58 H9          -6.9590    -3.9090     8.9670 ha         1 8E8       0.105000
     59 CAA          7.9890     3.3480     5.2990 c3         1 8E8       0.020900
@<TRIPOS>BOND
     1     1     2 ar  
     2     1     6 ar  
     3     2     3 ar  
     4     2    31 1   
     5     3     4 ar  
     6     4     5 ar  
     7     4    29 1   
     8     5     6 ar  
     9     5    27 1   
    10     6     7 1   
    11     7    35 1   
    12     7    36 1   
    13     8    57 2   
    14     9    37 1   
    15     9    38 1   
    16     9    57 1   
    17     9    59 1   
    18    10    11 ar  
    19    10    12 ar  
    20    10    58 1   
    21    11    13 ar  
    22    11    39 1   
    23    12    14 ar  
    24    12    40 1   
    25    13    24 ar  
    26    13    41 1   
    27    14    24 ar  
    28    14    42 1   
    29    15    17 ar  
    30    15    25 ar  
    31    15    43 1   
    32    16    18 ar  
    33    16    25 ar  
    34    16    44 1   
    35    17    26 ar  
    36    17    45 1   
    37    18    26 ar  
    38    18    46 1   
    39    19    20 1   
    40    19    21 1   
    41    19    47 1   
    42    19    48 1   
    43    20    28 1   
    44    20    49 1   
    45    20    50 1   
    46    21    30 1   
    47    21    51 1   
    48    21    52 1   
    49    22    28 1   
    50    22    30 1   
    51    22    53 1   
    52    22    54 1   
    53    23    27 2   
    54    23    29 1   
    55    24    56 1   
    56    25    56 1   
    57    26    27 1   
    58    28    29 1   
    59    28    55 1   
    60    30    57 1   
    61    32    59 1   
    62    33    59 1   
    63    34    59 1   
@<TRIPOS>SUBSTRUCTURE
     1 8E8         1 TEMP              0 ****  ****    0 ROOT
