@<TRIPOS>MOLECULE
molecule
   59    63     1     0     0
SMALL
bcc


@<TRIPOS>ATOM
      1 N1           0.0000     0.0000     0.0000 nb         1 8E8      -0.833000
      2 C2           1.3220     0.0000     0.0000 ca         1 8E8       0.755900
      3 N3           2.0310     0.0000     1.1070 nb         1 8E8      -0.801000
      4 C4           1.4330     0.0010     2.2990 ca         1 8E8       0.536800
      5 C5           0.0260     0.0020     2.3470 ca         1 8E8      -0.532500
      6 C6          -0.6870     0.0010     1.1370 ca         1 8E8       0.791200
      7 NAB         -2.0690     0.0030     1.1300 nv         1 8E8      -1.017500
      8 OAC          5.4660     3.1640     4.5260 o          1 8E8      -0.603100
      9 CAD          7.2180     2.0820     5.6780 c3         1 8E8      -0.158400
     10 CAE         -6.6660    -3.0930     8.3170 ca         1 8E8      -0.161000
     11 CAF         -7.6020    -2.1580     7.9180 ca         1 8E8      -0.094000
     12 CAG         -5.3550    -2.9870     7.8920 ca         1 8E8      -0.094000
     13 CAI         -7.2310    -1.1160     7.0920 ca         1 8E8      -0.180000
     14 CAJ         -4.9790    -1.9490     7.0600 ca         1 8E8      -0.180000
     15 CAK         -3.9680    -0.8220     4.2840 ca         1 8E8      -0.146000
     16 CAL         -3.3160     0.8400     5.8990 ca         1 8E8      -0.146000
     17 CAM         -2.6890    -0.8260     3.7680 ca         1 8E8      -0.100000
     18 CAN         -2.0370     0.8430     5.3840 ca         1 8E8      -0.100000
     19 CAO          5.0380    -1.2640     5.2490 c3         1 8E8      -0.099400
     20 CAP          3.5630    -1.2450     4.8440 c3         1 8E8      -0.095400
     21 CAQ          5.3460    -0.0260     6.0990 c3         1 8E8       0.098000
     22 CAR          3.5670     1.2540     4.8370 c3         1 8E8       0.094000
     23 NAU          0.7760     0.0050     4.4550 nc         1 8E8      -0.498100
     24 CAY         -5.9160    -1.0060     6.6630 ca         1 8E8       0.133100
     25 CAZ         -4.2860     0.0120     5.3480 ca         1 8E8       0.112100
     26 CBA         -1.7150     0.0070     4.3160 ca         1 8E8      -0.104900
     27 CBB         -0.3390     0.0050     3.7640 cd         1 8E8       0.445500
     28 CBE          3.2790     0.0020     4.0020 c3         1 8E8       0.073000
     29 NBF          1.8730     0.0030     3.5890 na         1 8E8      -0.024800
     30 NBG          4.9410     1.1730     5.3520 n          1 8E8      -0.495800
     31 H1           1.8410    -0.0010    -0.9500 h5         1 8E8       0.062100
     32 H2           7.4960     4.2130     5.7250 hc         1 8E8       0.044367
     33 H3           8.0180     3.4440     4.2200 hc         1 8E8       0.044367
     34 H4           9.0000     3.2840     5.6830 hc         1 8E8       0.044367
     35 H5          -2.5720     0.5190     1.8240 hn         1 8E8       0.448300
     36 H6          -2.5650    -0.4750     0.4040 hn         1 8E8       0.448300
     37 H7           7.7090     1.2170     5.2480 hc         1 8E8       0.058200
     38 H8           7.1870     1.9800     6.7560 hc         1 8E8       0.058200
     39 H10         -8.6290    -2.2440     8.2530 ha         1 8E8       0.133500
     40 H11         -4.6230    -3.7220     8.2040 ha         1 8E8       0.133500
     41 H12         -7.9660    -0.3820     6.7810 ha         1 8E8       0.144000
     42 H13         -3.9520    -1.8660     6.7270 ha         1 8E8       0.144000
     43 H14         -4.7260    -1.4680     3.8570 ha         1 8E8       0.150000
     44 H15         -3.5670     1.4890     6.7290 ha         1 8E8       0.150000
     45 H16         -2.4410    -1.4770     2.9380 ha         1 8E8       0.152500
     46 H17         -1.2820     1.4900     5.8130 ha         1 8E8       0.152500
     47 H18          5.6560    -1.2530     4.3590 hc         1 8E8       0.054200
     48 H19          5.2420    -2.1570     5.8270 hc         1 8E8       0.054200
     49 H20          3.3380    -2.1310     4.2630 hc         1 8E8       0.060700
     50 H21          2.9460    -1.2250     5.7350 hc         1 8E8       0.060700
     51 H22          6.4090     0.0170     6.3040 h1         1 8E8       0.052200
     52 H23          4.7930    -0.0780     7.0290 h1         1 8E8       0.052200
     53 H24          2.8720     1.3050     5.6660 h1         1 8E8       0.077700
     54 H25          3.4650     2.1350     4.2160 h1         1 8E8       0.077700
     55 H26          3.9180    -0.0020     3.1270 h1         1 8E8       0.099700
     56 OAV         -5.5480     0.0180     5.8500 os         1 8E8      -0.251200
     57 CAW          5.8120     2.1800     5.1440 c          1 8E8       0.663100
     58 H9          -6.9590    -3.9090     8.9670 ha         1 8E8       0.131000
     59 CAA          7.9890     3.3480     5.2990 c3         1 8E8      -0.077100
@<TRIPOS>BOND
     1     8    57 2   
     2     9    57 1   
     3     9    59 1   
     4    57    30 1   
     5     2     3 ar  
     6     2     1 ar  
     7     3     4 ar  
     8     1     6 ar  
     9    30    22 1   
    10    30    21 1   
    11    22    28 1   
    12     4    29 1   
    13     4     5 ar  
    14    28    29 1   
    15    28    20 1   
    16     6     5 ar  
    17     6     7 1   
    18    21    19 1   
    19    19    20 1   
    20    29    23 1   
    21     5    27 1   
    22    23    27 2   
    23    27    26 1   
    24    26    17 ar  
    25    26    18 ar  
    26    17    15 ar  
    27    18    16 ar  
    28    15    25 ar  
    29    16    25 ar  
    30    25    56 1   
    31    13    11 ar  
    32    13    24 ar  
    33    56    24 1   
    34    11    10 ar  
    35    24    14 ar  
    36    10    12 ar  
    37    14    12 ar  
    38     2    31 1   
    39    59    32 1   
    40    59    33 1   
    41    59    34 1   
    42     7    35 1   
    43     7    36 1   
    44     9    37 1   
    45     9    38 1   
    46    10    58 1   
    47    11    39 1   
    48    12    40 1   
    49    13    41 1   
    50    14    42 1   
    51    15    43 1   
    52    16    44 1   
    53    17    45 1   
    54    18    46 1   
    55    19    47 1   
    56    19    48 1   
    57    20    49 1   
    58    20    50 1   
    59    21    51 1   
    60    21    52 1   
    61    22    53 1   
    62    22    54 1   
    63    28    55 1   
@<TRIPOS>SUBSTRUCTURE
     1 8E8         1 TEMP              0 ****  ****    0 ROOT
