@<TRIPOS>MOLECULE
molecule
   44    47     1     0     0
SMALL
bcc


@<TRIPOS>ATOM
      1 O16          0.0000     0.0000     0.0000 o          1 8E9      -0.514100
      2 C10          1.2160     0.0000     0.0000 c          1 8E9       0.587300
      3 C14          1.9650     0.0000     1.2750 ca         1 8E9      -0.112600
      4 C5           1.3190    -0.2850     2.4750 ca         1 8E9      -0.084000
      5 C6           2.0350    -0.2800     3.6590 ca         1 8E9      -0.145000
      6 C7           3.3880     0.0060     3.6600 ca         1 8E9      -0.141000
      7 C8           4.0460     0.2910     2.4770 ca         1 8E9      -0.087000
      8 C13          3.3410     0.2890     1.2770 ca         1 8E9      -0.112600
      9 C9           4.0270     0.5890     0.0010 c          1 8E9       0.591300
     10 O9           5.1410     1.0770     0.0010 o          1 8E9      -0.516100
     11 C11          1.9620    -0.0050    -1.2690 ca         1 8E9      -0.131600
     12 C12          3.3450     0.2900    -1.2690 ca         1 8E9      -0.197600
     13 C1           4.0490     0.2900    -2.4750 ca         1 8E9       0.307600
     14 N1           5.4060     0.5720    -2.4890 nv         1 8E9      -0.974200
     15 C4           1.3180    -0.2940    -2.4750 ca         1 8E9       0.144600
     16 C3           2.0460    -0.2940    -3.6690 ca         1 8E9      -0.020000
     17 C2           3.3800     0.0020    -3.6700 ca         1 8E9      -0.248500
     18 S2           4.2720     0.0020    -5.1890 s6         1 8E9       1.320100
     19 OS2          4.6230    -1.3500    -5.4490 o          1 8E9      -0.701200
     20 OS1          3.2960     0.4110    -6.2850 o          1 8E9      -0.701200
     21 OS3          5.2290     1.0490    -5.0940 o          1 8E9      -0.701200
     22 N4          -0.0390    -0.5800    -2.4880 nu         1 8E9      -0.688000
     23 C1'         -0.4890    -1.8440    -2.0990 ca         1 8E9       0.226600
     24 C6'          0.4230    -2.8550    -1.8230 ca         1 8E9      -0.200000
     25 C5'         -0.0260    -4.1020    -1.4380 ca         1 8E9      -0.085000
     26 C4'         -1.3820    -4.3480    -1.3280 ca         1 8E9      -0.194000
     27 C3'         -2.2940    -3.3440    -1.6030 ca         1 8E9      -0.049300
     28 C7'         -3.7710    -3.6160    -1.4810 c3         1 8E9      -0.044800
     29 C2'         -1.8510    -2.0920    -1.9810 ca         1 8E9      -0.199000
     30 H5           0.3070    -0.6280     2.6560 ha         1 8E9       0.148000
     31 H6           1.5500    -0.4680     4.6100 ha         1 8E9       0.125000
     32 H7           3.9060     0.0270     4.6110 ha         1 8E9       0.124000
     33 H8           5.1140     0.3840     2.6340 ha         1 8E9       0.147000
     34 H11N         6.0720    -0.1680    -2.3820 hn         1 8E9       0.444800
     35 H12N         5.7190     1.5180    -2.5750 hn         1 8E9       0.444800
     36 H3           1.5440    -0.5140    -4.6030 ha         1 8E9       0.170000
     37 H4          -0.6930     0.1090    -2.8030 hn         1 8E9       0.450800
     38 H6'          1.4860    -2.6640    -1.9080 ha         1 8E9       0.146000
     39 H2'         -2.5660    -1.3070    -2.1960 ha         1 8E9       0.125000
     40 H5'          0.6850    -4.8900    -1.2230 ha         1 8E9       0.122000
     41 H4'         -1.7310    -5.3280    -1.0270 ha         1 8E9       0.116000
     42 H7'1        -4.1630    -3.1010    -0.6120 hc         1 8E9       0.036033
     43 H7'2        -4.2780    -3.2620    -2.3700 hc         1 8E9       0.036033
     44 H7'3        -3.9340    -4.6820    -1.3720 hc         1 8E9       0.036033
@<TRIPOS>BOND
     1     1     2 2
     2     2     3 1
     3     2    11 1
     4     3     4 ar
     5     3     8 ar
     6     4     5 ar
     7     5     6 ar
     8     6     7 ar
     9     7     8 ar
    10     8     9 1
    11     9    10 2
    12     9    12 1
    13    11    12 ar
    14    11    15 ar
    15    12    13 ar
    16    13    14 1
    17    13    17 ar
    18    15    16 ar
    19    15    22 1
    20    16    17 ar
    21    17    18 1
    22    18    19 1
    23    18    20 1
    24    18    21 1
    25    22    23 1
    26    23    24 ar
    27    23    29 ar
    28    24    25 ar
    29    25    26 ar
    30    26    27 ar
    31    27    28 1
    32    27    29 ar
    33     4    30 1
    34     5    31 1
    35     6    32 1
    36     7    33 1
    37    14    34 1
    38    14    35 1
    39    16    36 1
    40    22    37 1
    41    24    38 1
    42    29    39 1
    43    25    40 1
    44    26    41 1
    45    28    42 1
    46    28    43 1
    47    28    44 1
@<TRIPOS>SUBSTRUCTURE
     1 8E9         1 TEMP              0 ****  ****    0 ROOT
