@<TRIPOS>MOLECULE
8EA
   55    55     1     0     0
SMALL
bcc


@<TRIPOS>ATOM
      1 C10          0.0000     0.0000     0.0000 c3         1 8EA      -0.030400
      2 C13          7.6490     0.0020    -4.3300 c3         1 8EA      -0.028400
      3 C15          8.1580     0.0030    -5.7720 c3         1 8EA       0.005900
      4 C17         -5.5960     2.8840     4.5520 c3         1 8EA       0.126000
      5 C20         -7.1510     3.2020     6.4860 ca         1 8EA      -0.074500
      6 C21         -8.8200     1.1990     5.5630 ca         1 8EA      -0.096500
      7 C22         -8.2970     2.8780     7.1890 ca         1 8EA      -0.096500
      8 Cl         -10.5740     1.4740     7.6050 cl         1 8EA      -0.026400
      9 S02         -4.6840    -0.0010     4.4680 ss         1 8EA      -0.199100
     10 S03         -4.2100     1.8750     5.1450 ss         1 8EA      -0.198100
     11 N04         -1.9790     0.0000     1.4430 n7         1 8EA      -0.589200
     12 C05          3.5690     0.0000    -1.4440 c3         1 8EA      -0.029400
     13 C06          2.0390     0.0010    -1.4430 c3         1 8EA      -0.028400
     14 C07          4.0790     0.0020    -2.8870 c3         1 8EA      -0.029400
     15 C08          1.5300     0.0000     0.0000 c3         1 8EA      -0.027400
     16 C09          5.6090     0.0010    -2.8860 c3         1 8EA      -0.029400
     17 C11          6.1190     0.0030    -4.3290 c3         1 8EA      -0.030400
     18 C12         -0.5100     0.0000     1.4420 c3         1 8EA       0.143800
     19 C14         -2.5050    -0.0000     2.8150 c3         1 8EA       0.134800
     20 C16         -4.0340     0.0000     2.7740 c3         1 8EA       0.057700
     21 C18         -6.8420     2.5280     5.3200 ca         1 8EA      -0.104300
     22 C19         -7.6760     1.5260     4.8580 ca         1 8EA      -0.074500
     23 C23         -9.1350     1.8800     6.7240 ca         1 8EA      -0.029600
     24 H1          -0.3610    -0.8850    -0.5110 hc         1 8EA       0.019700
     25 H2          -0.3610     0.8850    -0.5110 hc         1 8EA       0.019700
     26 H3           7.9990    -0.8900    -3.8240 hc         1 8EA       0.012200
     27 H4           8.0210     0.8790    -3.8140 hc         1 8EA       0.012200
     28 H5           7.7960    -0.8810    -6.2840 hc         1 8EA       0.000033
     29 H6           7.7980     0.8880    -6.2820 hc         1 8EA       0.000033
     30 H7           9.2420     0.0020    -5.7730 hc         1 8EA       0.000033
     31 H8          -5.3680     3.9330     4.7010 h1         1 8EA       0.056200
     32 H9          -5.7550     2.6950     3.4970 h1         1 8EA       0.056200
     33 H10         -6.4950     3.9830     6.8500 ha         1 8EA       0.114500
     34 H11         -9.4740     0.4160     5.2000 ha         1 8EA       0.116000
     35 H12         -8.5420     3.4100     8.1010 ha         1 8EA       0.116000
     36 H13         -2.3120    -0.8080     0.9570 hn         1 8EA       0.251800
     37 H15          3.9300    -0.8850    -0.9340 hc         1 8EA       0.014700
     38 H16          3.9310     0.8840    -0.9320 hc         1 8EA       0.014700
     39 H17          1.6780     0.8870    -1.9520 hc         1 8EA       0.015200
     40 H18          1.6770    -0.8820    -1.9540 hc         1 8EA       0.015200
     41 H19          3.7180     0.8870    -3.3960 hc         1 8EA       0.014700
     42 H20          3.7180    -0.8820    -3.3980 hc         1 8EA       0.014700
     43 H21          1.8910     0.8840     0.5110 hc         1 8EA       0.015200
     44 H22          1.8910    -0.8850     0.5100 hc         1 8EA       0.015200
     45 H23          5.9700     0.8850    -2.3740 hc         1 8EA       0.014700
     46 H24          5.9700    -0.8840    -2.3760 hc         1 8EA       0.014700
     47 H25          5.7570    -0.8810    -4.8400 hc         1 8EA       0.014700
     48 H26          5.7580     0.8880    -4.8380 hc         1 8EA       0.014700
     49 H27         -0.1490    -0.8850     1.9530 h1         1 8EA       0.009200
     50 H28         -0.1480     0.8840     1.9530 h1         1 8EA       0.009200
     51 H29         -2.1580    -0.8850     3.3340 h1         1 8EA       0.026700
     52 H30         -2.1580     0.8840     3.3350 h1         1 8EA       0.026700
     53 H31         -4.3820    -0.8840     2.2530 h1         1 8EA       0.055200
     54 H32         -4.3810     0.8850     2.2550 h1         1 8EA       0.055200
     55 H33         -7.4290     0.9920     3.9480 ha         1 8EA       0.114500
@<TRIPOS>BOND
     1     1    15 1   
     2     1    18 1   
     3     1    24 1   
     4     1    25 1   
     5     2     3 1   
     6     2    17 1   
     7     2    26 1   
     8     2    27 1   
     9     3    28 1   
    10     3    29 1   
    11     3    30 1   
    12     4    10 1   
    13     4    21 1   
    14     4    31 1   
    15     4    32 1   
    16     5     7 ar  
    17     5    21 ar  
    18     5    33 1   
    19     6    22 ar  
    20     6    23 ar  
    21     6    34 1   
    22     7    23 ar  
    23     7    35 1   
    24     8    23 1   
    25     9    10 1   
    26     9    20 1   
    27    11    18 1   
    28    11    19 1   
    29    11    36 1   
    30    12    13 1   
    31    12    14 1   
    32    12    37 1   
    33    12    38 1   
    34    13    15 1   
    35    13    39 1   
    36    13    40 1   
    37    14    16 1   
    38    14    41 1   
    39    14    42 1   
    40    15    43 1   
    41    15    44 1   
    42    16    17 1   
    43    16    45 1   
    44    16    46 1   
    45    17    47 1   
    46    17    48 1   
    47    18    49 1   
    48    18    50 1   
    49    19    20 1   
    50    19    51 1   
    51    19    52 1   
    52    20    53 1   
    53    20    54 1   
    54    21    22 ar  
    55    22    55 1   
@<TRIPOS>SUBSTRUCTURE
     1 8EA         1 TEMP              0 ****  ****    0 ROOT
