@<TRIPOS>MOLECULE
molecule
   36    39     1     0     0
SMALL
bcc


@<TRIPOS>ATOM
      1 C02          0.0000     0.0000     0.0000 c          1 8EC       0.499700
      2 C04          1.4720     0.0000     0.0000 ca         1 8EC      -0.143600
      3 C05          2.1760     0.0000     1.2030 ca         1 8EC      -0.179000
      4 C06          3.5590    -0.0010     1.2040 ca         1 8EC       0.112900
      5 C08          4.2650    -0.0030     0.0120 ca         1 8EC      -0.078000
      6 C09          3.5900    -0.0030    -1.1970 ca         1 8EC      -0.078200
      7 C11          2.8620    -0.0050    -3.2880 cc         1 8EC       0.607400
      8 C12          2.8350    -0.0040    -4.7570 cc         1 8EC      -0.157000
      9 C13          1.7120    -0.0060    -5.5240 cd         1 8EC      -0.045000
     10 C14          1.9600    -0.0040    -6.8850 cd         1 8EC      -0.121300
     11 C15          0.8690    -0.0050    -7.9480 c3         1 8EC      -0.010100
     12 C16          1.4990     0.4130    -9.2800 c3         1 8EC       0.152800
     13 C18          3.7940    -0.0010    -8.6290 c3         1 8EC       0.231100
     14 C19          3.2730    -0.0020    -7.2040 cc         1 8EC      -0.016400
     15 C22          2.1840    -0.0070    -1.2200 ca         1 8EC       0.184400
     16 F07          4.2280     0.0000     2.3780 f          1 8EC      -0.113900
     17 N01         -0.6740     0.0070     1.1670 nz         1 8EC      -0.677400
     18 N10          3.9970    -0.0050    -2.5200 na         1 8EC      -0.256300
     19 N17          2.6990    -0.3970    -9.5280 n7         1 8EC      -0.817200
     20 N21          1.8020    -0.0070    -2.5090 nd         1 8EC      -0.610100
     21 O03         -0.6090    -0.0000    -1.0520 o          1 8EC      -0.390100
     22 S20          4.2460     0.0070    -5.8030 ss         1 8EC      -0.064800
     23 H1           1.9370     0.0150     2.2600 ha         1 8EC       0.159000
     24 H2           5.3460     0.0020     0.0890 ha         1 8EC       0.171000
     25 H3           0.7120    -0.0100    -5.1070 ha         1 8EC       0.173000
     26 H4           0.4500    -0.9990    -8.0400 hc         1 8EC       0.065200
     27 H5           0.0940     0.7010    -7.6750 hc         1 8EC       0.065200
     28 H6           0.7850     0.2090   -10.0700 h1         1 8EC       0.048200
     29 H7           1.8020     1.4500    -9.2000 h1         1 8EC       0.048200
     30 H8           4.0920     1.0100    -8.8810 h1         1 8EC       0.060700
     31 H9           4.5810    -0.7410    -8.7040 h1         1 8EC       0.060700
     32 H10         -0.4550     0.8430     1.6740 hn         1 8EC       0.473800
     33 H11         -0.4090    -0.7910     1.7100 hn         1 8EC       0.473800
     34 H12          4.9300    -0.1620    -2.8480 hn         1 8EC       0.329700
     35 H13          2.9900    -0.2820   -10.4780 hn         1 8EC       0.371800
     36 H013        -1.6570    -0.0200     0.9850 hn         1 8EC       0.473800
@<TRIPOS>BOND
     1    19    13 1
     2    19    12 1
     3    13    14 1
     4    14    22 1
     5    14    10 2
     6    12    11 1
     7    22     8 1
     8    10    11 1
     9    10     9 1
    10     8     9 2
    11     8     7 1
    12    18     7 1
    13    18     6 1
    14     7    20 2
    15     5     6 ar
    16     5     4 ar
    17     6    15 ar
    18    20    15 1
    19     4    16 1
    20     4     3 ar
    21    15     2 ar
    22     3     2 ar
    23     2     1 1
    24    17     1 1
    25     1    21 2
    26     3    23 1
    27     5    24 1
    28     9    25 1
    29    11    26 1
    30    11    27 1
    31    12    28 1
    32    12    29 1
    33    13    30 1
    34    13    31 1
    35    17    32 1
    36    17    33 1
    37    18    34 1
    38    19    35 1
    39    36    17 1
@<TRIPOS>SUBSTRUCTURE
     1 8EC         1 TEMP              0 ****  ****    0 ROOT
