@<TRIPOS>MOLECULE
8EC
   36    39     1     0     0
SMALL
bcc


@<TRIPOS>ATOM
      1 C02          0.0000     0.0000     0.0000 c          1 8EC       0.339700
      2 C04          1.4720     0.0000     0.0000 ca         1 8EC      -0.150600
      3 C05          2.1760     0.0000     1.2030 ca         1 8EC      -0.146000
      4 C06          3.5590    -0.0010     1.2040 ca         1 8EC       0.077900
      5 C08          4.2650    -0.0030     0.0120 ca         1 8EC      -0.010000
      6 C09          3.5900    -0.0030    -1.1970 ca         1 8EC      -0.264200
      7 C11          2.8620    -0.0050    -3.2880 cc         1 8EC       0.408400
      8 C12          2.8350    -0.0040    -4.7570 cc         1 8EC      -0.115000
      9 C13          1.7120    -0.0060    -5.5240 cd         1 8EC      -0.009000
     10 C14          1.9600    -0.0040    -6.8850 cd         1 8EC      -0.127300
     11 C15          0.8690    -0.0050    -7.9480 c3         1 8EC       0.058900
     12 C16          1.4990     0.4130    -9.2800 c3         1 8EC       0.139800
     13 C18          3.7940    -0.0010    -8.6290 c3         1 8EC       0.241100
     14 C19          3.2730    -0.0020    -7.2040 cc         1 8EC       0.034600
     15 C22          2.1840    -0.0070    -1.2200 ca         1 8EC       0.155400
     16 F07          4.2280     0.0000     2.3780 f          1 8EC      -0.106900
     17 N01         -0.6740     0.0070     1.1670 nz         1 8EC       0.199600
     18 N10          3.9970    -0.0050    -2.5200 na         1 8EC       0.281700
     19 N17          2.6990    -0.3970    -9.5280 n7         1 8EC      -0.581200
     20 N21          1.8020    -0.0070    -2.5090 nd         1 8EC      -0.532100
     21 O03         -0.6090    -0.0000    -1.0520 o          1 8EC      -0.402100
     22 S20          4.2460     0.0070    -5.8030 ss         1 8EC      -0.207800
     23 H1           1.9370     0.0150     2.2600 ha         1 8EC       0.134000
     24 H2           5.3460     0.0020     0.0890 ha         1 8EC       0.134000
     25 H3           0.7120    -0.0100    -5.1070 ha         1 8EC       0.138000
     26 H4           0.4500    -0.9990    -8.0400 hc         1 8EC       0.030700
     27 H5           0.0940     0.7010    -7.6750 hc         1 8EC       0.030700
     28 H6           0.7850     0.2090   -10.0700 h1         1 8EC       0.019200
     29 H7           1.8020     1.4500    -9.2000 h1         1 8EC       0.019200
     30 H8           4.0920     1.0100    -8.8810 h1         1 8EC       0.029200
     31 H9           4.5810    -0.7410    -8.7040 h1         1 8EC       0.029200
     32 H10         -0.4550     0.8430     1.6740 hn         1 8EC       0.242467
     33 H11         -0.4090    -0.7910     1.7100 hn         1 8EC       0.242467
     34 H12          4.9300    -0.1620    -2.8480 hn         1 8EC       0.155700
     35 H13          2.9900    -0.2820   -10.4780 hn         1 8EC       0.266800
     36 H013        -1.6570    -0.0200     0.9850 hn         1 8EC       0.242467
@<TRIPOS>BOND
     1     1     2 1   
     2     1    17 1   
     3     1    21 2   
     4     2     3 ar  
     5     2    15 ar  
     6     3     4 ar  
     7     3    23 1   
     8     4     5 ar  
     9     4    16 1   
    10     5     6 ar  
    11     5    24 1   
    12     6    15 ar  
    13     6    18 1   
    14     7     8 1   
    15     7    18 1   
    16     7    20 2   
    17     8     9 2   
    18     8    22 1   
    19     9    10 1   
    20     9    25 1   
    21    10    11 1   
    22    10    14 2   
    23    11    12 1   
    24    11    26 1   
    25    11    27 1   
    26    12    19 1   
    27    12    28 1   
    28    12    29 1   
    29    13    14 1   
    30    13    19 1   
    31    13    30 1   
    32    13    31 1   
    33    14    22 1   
    34    15    20 1   
    35    17    32 1   
    36    17    33 1   
    37    17    36 1   
    38    18    34 1   
    39    19    35 1   
@<TRIPOS>SUBSTRUCTURE
     1 8EC         1 TEMP              0 ****  ****    0 ROOT
