@<TRIPOS>MOLECULE
molecule
   43    44     1     0     0
SMALL
bcc


@<TRIPOS>ATOM
      1 C4'          0.0000     0.0000     0.0000 ca         1 8EF       0.729200
      2 C5'          1.3970     0.0000     0.0000 ca         1 8EF      -0.453900
      3 C6'          2.0530     0.0000     1.2150 ca         1 8EF       0.478200
      4 N1'          1.3410     0.0010     2.3340 nb         1 8EF      -0.762000
      5 N3'         -0.6420     0.0010     1.1650 nb         1 8EF      -0.802000
      6 O2B          0.7110    10.5940     3.4490 o          1 8EF      -0.882167
      7 PB           2.1820     9.9540     3.3050 p5         1 8EF       1.313900
      8 O1B          3.0500    10.8790     2.5430 o          1 8EF      -0.882167
      9 O3B          2.7970     9.7270     4.7750 o          1 8EF      -0.882167
     10 O3A          2.0970     8.5420     2.5350 os         1 8EF      -0.714800
     11 PA           1.9820     8.1180     0.9860 p5         1 8EF       1.427800
     12 O2A          0.4830     8.3890     0.4650 o          1 8EF      -0.859500
     13 O1A          2.9350     8.9170     0.1840 o          1 8EF      -0.859500
     14 O7           2.3290     6.5540     0.8310 os         1 8EF      -0.596200
     15 C7           2.4160     5.8980    -0.4360 c3         1 8EF       0.232400
     16 C5           2.8550     3.7200    -1.5790 c3         1 8EF       0.090600
     17 C4           3.2060     2.2570    -1.3990 c2         1 8EF       0.143800
     18 CM4          4.3540     1.8670    -0.8780 c2         1 8EF      -0.351000
     19 S1           1.2110     3.6640    -2.3930 ss         1 8EF      -0.337200
     20 C2           1.3090     1.8830    -2.8270 c3         1 8EF       0.316900
     21 N3           2.2500     1.3650    -1.8160 nh         1 8EF      -0.739400
     22 C7'          2.1680    -0.0010    -1.2950 c3         1 8EF       0.327100
     23 C2'          0.0240     0.0000     2.3010 ca         1 8EF       0.660300
     24 CM2         -0.7410     0.0010     3.5990 c3         1 8EF      -0.108400
     25 N4'         -0.7040     0.0060    -1.1930 nv         1 8EF      -1.036500
     26 H1           3.1350     0.0000     1.2540 h4         1 8EF       0.017100
     27 H5           1.4650     5.9760    -0.9490 h1         1 8EF       0.020700
     28 H6           3.1880     6.3670    -1.0330 h1         1 8EF       0.020700
     29 H7           3.7130     4.3440     0.2900 hc         1 8EF       0.062200
     30 H8           1.9890     3.9530     0.3750 hc         1 8EF       0.062200
     31 H9           3.5790     4.2080    -2.2200 h1         1 8EF       0.080700
     32 H10          5.0840     2.6030    -0.5620 ha         1 8EF       0.112500
     33 H11          4.5680     0.8100    -0.7670 ha         1 8EF       0.112500
     34 H12          1.7090     1.7530    -3.8260 h2         1 8EF       0.045700
     35 H13          0.3400     1.4100    -2.7280 h2         1 8EF       0.045700
     36 H14          1.6640    -0.6330    -2.0160 h1         1 8EF       0.028200
     37 H15          3.1680    -0.3810    -1.1190 h1         1 8EF       0.028200
     38 H16         -0.0600     0.1910     4.4200 hc         1 8EF       0.045033
     39 H17         -1.4980     0.7760     3.5720 hc         1 8EF       0.045033
     40 H18         -1.2160    -0.9630     3.7390 hc         1 8EF       0.045033
     41 H19         -0.3830    -0.5450    -1.9650 hn         1 8EF       0.428300
     42 H20         -1.5670     0.5070    -1.2610 hn         1 8EF       0.428300
     43 C6           2.7620     4.4220    -0.2230 c3         1 8EF      -0.079400
@<TRIPOS>BOND
     1    18    17 2
     2    17    21 1
     3    17    16 1
     4    43    16 1
     5    43    15 1
     6    22    21 1
     7    22     2 1
     8     3     4 ar
     9     3     2 ar
    10     8     7 1
    11    21    20 1
    12    16    19 1
    13    14    15 1
    14    14    11 1
    15     4    23 ar
    16     2     1 ar
    17    20    19 1
    18    13    11 1
    19    11    10 1
    20    11    12 1
    21     7    10 1
    22     7     9 1
    23     7     6 1
    24    23    24 1
    25    23     5 ar
    26     1     5 ar
    27     1    25 1
    28     3    26 1
    29    15    27 1
    30    15    28 1
    31    43    29 1
    32    43    30 1
    33    16    31 1
    34    18    32 1
    35    18    33 1
    36    20    34 1
    37    20    35 1
    38    22    36 1
    39    22    37 1
    40    24    38 1
    41    24    39 1
    42    24    40 1
    43    25    41 1
    44    25    42 1
@<TRIPOS>SUBSTRUCTURE
     1 8EF         1 TEMP              0 ****  ****    0 ROOT
