@<TRIPOS>MOLECULE
molecule
   19    19     1     0     0
SMALL
bcc


@<TRIPOS>ATOM
      1 N1           0.0000     0.0000     0.0000 nb         1 8EJ      -0.668000
      2 C4           1.3160     0.0000     2.4070 ca         1 8EJ       0.011000
      3 C5           2.0270     0.0000     1.2000 ca         1 8EJ      -0.360900
      4 C6           1.3170     0.0000     0.0000 ca         1 8EJ       0.464200
      5 C7           3.5050     0.0000     1.1990 c          1 8EJ       0.511700
      6 C2          -0.6960     0.0000     1.1210 ca         1 8EJ       0.513600
      7 C3          -0.0670     0.0000     2.3530 ca         1 8EJ      -0.247300
      8 N2           4.1780     0.0000     0.0320 nz         1 8EJ      -0.679400
      9 O1           4.1140     0.0000     2.2520 o          1 8EJ      -0.417100
     10 H1           1.8350     0.0000     3.3580 ha         1 8EJ       0.178000
     11 H2           1.8540     0.0000    -0.9410 h4         1 8EJ       0.001100
     12 H3          -2.5200     0.0000     0.0220 hc         1 8EJ       0.078700
     13 H4          -2.5840    -0.8850     1.5530 hc         1 8EJ       0.078700
     14 H5          -2.5840     0.8840     1.5530 hc         1 8EJ       0.078700
     15 H6          -0.6510    -0.0000     3.2660 ha         1 8EJ       0.179000
     16 H7           5.1620     0.0000     0.2140 hn         1 8EJ       0.479133
     17 H8           3.9360     0.8170    -0.4930 hn         1 8EJ       0.479133
     18 C1          -2.2020     0.0000     1.0580 c3         1 8EJ      -0.159400
     19 H23          3.9360    -0.8170    -0.4930 hn         1 8EJ       0.479133
@<TRIPOS>BOND
     1    18     6 1
     2     1     6 ar
     3     1     4 ar
     4     6     7 ar
     5     4     3 ar
     6     7     2 ar
     7     3     2 ar
     8     3     5 1
     9     8     5 1
    10     5     9 2
    11     2    10 1
    12     4    11 1
    13    18    12 1
    14    18    13 1
    15    18    14 1
    16     7    15 1
    17     8    16 1
    18     8    17 1
    19    19     8 1
@<TRIPOS>SUBSTRUCTURE
     1 8EJ         1 TEMP              0 ****  ****    0 ROOT
