@<TRIPOS>MOLECULE
8EJ
   19    19     1     0     0
SMALL
bcc


@<TRIPOS>ATOM
      1 N1           0.0000     0.0000     0.0000 nb         1 8EJ      -0.548000
      2 C4           1.3160     0.0000     2.4070 ca         1 8EJ       0.055000
      3 C5           2.0270     0.0000     1.2000 ca         1 8EJ      -0.383900
      4 C6           1.3170     0.0000     0.0000 ca         1 8EJ       0.449200
      5 C7           3.5050     0.0000     1.1990 c          1 8EJ       0.365700
      6 C2          -0.6960     0.0000     1.1210 ca         1 8EJ       0.468600
      7 C3          -0.0670     0.0000     2.3530 ca         1 8EJ      -0.213300
      8 N2           4.1780     0.0000     0.0320 nz         1 8EJ       0.201600
      9 O1           4.1140     0.0000     2.2520 o          1 8EJ      -0.428100
     10 H1           1.8350     0.0000     3.3580 ha         1 8EJ       0.139000
     11 H2           1.8540     0.0000    -0.9410 h4         1 8EJ      -0.046900
     12 H3          -2.5200     0.0000     0.0220 hc         1 8EJ       0.036033
     13 H4          -2.5840    -0.8850     1.5530 hc         1 8EJ       0.036033
     14 H5          -2.5840     0.8840     1.5530 hc         1 8EJ       0.036033
     15 H6          -0.6510    -0.0000     3.2660 ha         1 8EJ       0.146000
     16 H7           5.1620     0.0000     0.2140 hn         1 8EJ       0.248133
     17 H8           3.9360     0.8170    -0.4930 hn         1 8EJ       0.248133
     18 C1          -2.2020     0.0000     1.0580 c3         1 8EJ      -0.058400
     19 H23          3.9360    -0.8170    -0.4930 hn         1 8EJ       0.248133
@<TRIPOS>BOND
     1     1     4 ar  
     2     1     6 ar  
     3     2     3 ar  
     4     2     7 ar  
     5     2    10 1   
     6     3     4 ar  
     7     3     5 1   
     8     4    11 1   
     9     5     8 1   
    10     5     9 2   
    11     6     7 ar  
    12     6    18 1   
    13     7    15 1   
    14     8    16 1   
    15     8    17 1   
    16     8    19 1   
    17    12    18 1   
    18    13    18 1   
    19    14    18 1   
@<TRIPOS>SUBSTRUCTURE
     1 8EJ         1 TEMP              0 ****  ****    0 ROOT
