@<TRIPOS>MOLECULE
molecule
   43    44     1     0     0
SMALL
bcc


@<TRIPOS>ATOM
      1 C4'          0.0000     0.0000     0.0000 ca         1 8EL       0.694200
      2 C5'          1.3970     0.0000     0.0000 ca         1 8EL      -0.431900
      3 C6'          2.0510     0.0000     1.2150 ca         1 8EL       0.464200
      4 N1'          1.3400     0.0000     2.3340 nb         1 8EL      -0.763000
      5 N3'         -0.6440     0.0010     1.1640 nb         1 8EL      -0.781000
      6 C2'          0.0230     0.0010     2.3000 ca         1 8EL       0.608300
      7 CM2         -0.7440     0.0000     3.5980 c3         1 8EL      -0.101400
      8 C7           5.4140     4.4080    -2.9610 c3         1 8EL       0.234400
      9 C2           1.2060     1.9440    -2.6860 c3         1 8EL       0.335900
     10 C7'          2.1690    -0.0010    -1.2940 c3         1 8EL       0.328100
     11 C4           3.2950     2.2120    -1.5400 c2         1 8EL       0.071800
     12 C5           3.3330     3.4350    -2.0270 c2         1 8EL      -0.024600
     13 N4'         -0.7040     0.0050    -1.1940 nv         1 8EL      -1.063500
     14 N3           2.2450     1.3650    -1.8180 nh         1 8EL      -0.731400
     15 O1B          9.0520     8.2490    -5.3410 o          1 8EL      -0.858833
     16 O1A          7.1270     5.8640    -5.1310 o          1 8EL      -0.858500
     17 O2B         10.9860     7.0590    -4.2380 o          1 8EL      -0.858833
     18 O3B          9.8400     9.1420    -3.1160 o          1 8EL      -0.858833
     19 O2A          8.5810     4.2850    -3.8040 o          1 8EL      -0.858500
     20 O7           6.4360     5.3830    -2.7520 os         1 8EL      -0.606200
     21 O3A          8.5410     6.8640    -3.2940 os         1 8EL      -0.716800
     22 PB           9.5930     7.8380    -4.0260 p5         1 8EL       1.314900
     23 PA           7.6600     5.6050    -3.7740 p5         1 8EL       1.429800
     24 S1           1.8570     3.6280    -2.9970 ss         1 8EL      -0.345700
     25 H1           3.1340    -0.0000     1.2540 h4         1 8EL       0.020100
     26 H2           5.3030     2.3320    -0.8430 hc         1 8EL       0.048700
     27 H3           4.1300     1.8240     0.3800 hc         1 8EL       0.048700
     28 H4           4.6360     0.6940    -0.8840 hc         1 8EL       0.048700
     29 H5          -1.0150     1.0160     3.8580 hc         1 8EL       0.035700
     30 H6          -0.1260    -0.4200     4.3830 hc         1 8EL       0.035700
     31 H7          -1.6410    -0.5960     3.4870 hc         1 8EL       0.035700
     32 H8           4.9020     4.6160    -3.8930 h1         1 8EL       0.023700
     33 H9           5.8590     3.4220    -3.0060 h1         1 8EL       0.023700
     34 H10          3.9660     5.4490    -1.7600 hc         1 8EL       0.052200
     35 H11          4.9230     4.2550    -0.8740 hc         1 8EL       0.052200
     36 H12          1.1250     1.3860    -3.6120 h2         1 8EL       0.038700
     37 H13          0.2550     1.9890    -2.1700 h2         1 8EL       0.038700
     38 H14          3.1700    -0.3760    -1.1180 h1         1 8EL       0.040200
     39 H15          1.6670    -0.6360    -2.0140 h1         1 8EL       0.040200
     40 H16         -0.6440    -0.7780    -1.8130 hn         1 8EL       0.425300
     41 H17         -1.3210     0.7650    -1.4070 hn         1 8EL       0.425300
     42 C6           4.4120     4.4630    -1.8060 c3         1 8EL      -0.010200
     43 CM4          4.4200     1.7320    -0.6600 c3         1 8EL      -0.043900
@<TRIPOS>BOND
     1    13     1 1
     2    16    23 1
     3     5     1 ar
     4     5     6 ar
     5     7     6 1
     6    15    22 1
     7    18    22 1
     8     1     2 ar
     9    21    22 1
    10    21    23 1
    11     6     4 ar
    12    22    17 1
    13    23    19 1
    14    23    20 1
    15    24     9 1
    16    24    12 1
    17     9    14 1
    18     8    20 1
    19     8    42 1
    20     2     3 ar
    21     2    10 1
    22     4     3 ar
    23    14    10 1
    24    14    11 1
    25    12    42 1
    26    12    11 2
    27    11    43 1
    28     3    25 1
    29    43    26 1
    30    43    27 1
    31    43    28 1
    32     7    29 1
    33     7    30 1
    34     7    31 1
    35     8    32 1
    36     8    33 1
    37    42    34 1
    38    42    35 1
    39     9    36 1
    40     9    37 1
    41    10    38 1
    42    10    39 1
    43    13    40 1
    44    13    41 1
@<TRIPOS>SUBSTRUCTURE
     1 8EL         1 TEMP              0 ****  ****    0 ROOT
