@<TRIPOS>MOLECULE
molecule
   52    55     1     0     0
SMALL
bcc


@<TRIPOS>ATOM
      1 C1           0.0000     0.0000     0.0000 ca         1 8EN      -0.076300
      2 C2           1.3940     0.0000     0.0000 ca         1 8EN      -0.028000
      3 C3           2.0870     0.0000     1.2070 ca         1 8EN      -0.107000
      4 C11          3.3610    -0.1200     6.1650 ca         1 8EN      -0.080000
      5 C12          4.0000    -0.1990     7.3850 ca         1 8EN      -0.141000
      6 C13          5.1910    -0.8920     7.5030 ca         1 8EN      -0.060000
      7 C14          5.7510    -1.5110     6.3990 ca         1 8EN      -0.190300
      8 C15          5.1220    -1.4400     5.1730 ca         1 8EN      -0.018000
      9 C16         -0.7530     0.0000    -1.3050 c3         1 8EN      -0.046800
     10 C17          2.1380    -0.0010    -1.2840 cc         1 8EN      -0.079000
     11 C18          2.7430    -1.1390    -1.7190 cd         1 8EN      -0.054300
     12 C20          3.5200    -0.0180    -3.6620 cd         1 8EN      -0.014300
     13 C21          2.8960     1.1700    -3.2310 cd         1 8EN      -0.095000
     14 C22          2.2140     1.1810    -2.0570 cc         1 8EN      -0.113000
     15 C23          4.1150    -2.1380    -3.5550 cd         1 8EN      -0.246100
     16 C24          4.6060    -1.5900    -4.6960 cc         1 8EN       0.209200
     17 C27          5.6780    -3.5590    -5.4990 c          1 8EN       0.662100
     18 C28          6.5010    -4.2760    -6.5390 c3         1 8EN      -0.167100
     19 C30          7.0490    -2.2630     6.5360 c3         1 8EN       0.676200
     20 C4           1.3850     0.0000     2.4040 ca         1 8EN       0.043600
     21 C5          -0.0050     0.0000     2.3950 ca         1 8EN      -0.150000
     22 C6          -0.6910    -0.0060     1.1950 ca         1 8EN      -0.114000
     23 N7           2.0760     0.0050     3.6200 ns         1 8EN      -0.473100
     24 C8           3.2380    -0.6660     3.7370 c          1 8EN       0.676700
     25 C9           3.9180    -0.7460     5.0480 ca         1 8EN      -0.153600
     26 O10          3.7300    -1.2050     2.7640 o          1 8EN      -0.589100
     27 N19          3.4290    -1.1520    -2.8970 na         1 8EN       0.050700
     28 N25          4.2360    -0.3050    -4.7420 nc         1 8EN      -0.352600
     29 N26          5.3720    -2.2570    -5.6630 ns         1 8EN      -0.448100
     30 O29          5.2930    -4.1540    -4.5150 o          1 8EN      -0.604100
     31 F31          7.4900    -2.1950     7.8620 f          1 8EN      -0.220300
     32 F32          6.8530    -3.6000     6.1780 f          1 8EN      -0.220300
     33 F33          8.0100    -1.6910     5.6950 f          1 8EN      -0.220300
     34 H1           3.1700    -0.0000     1.2120 ha         1 8EN       0.172000
     35 H2           2.4270     0.4220     6.0740 ha         1 8EN       0.130000
     36 H3           3.5680     0.2850     8.2530 ha         1 8EN       0.144000
     37 H4           5.6880    -0.9510     8.4640 ha         1 8EN       0.155000
     38 H5           5.5610    -1.9260     4.3090 ha         1 8EN       0.173000
     39 H6          -1.7950    -0.2340    -1.1220 hc         1 8EN       0.046700
     40 H7          -0.6790     0.9780    -1.7650 hc         1 8EN       0.046700
     41 H8          -0.3270    -0.7430    -1.9680 hc         1 8EN       0.046700
     42 H9           2.6800    -2.0420    -1.1240 h4         1 8EN       0.175000
     43 H10          2.9610     2.0700    -3.8320 ha         1 8EN       0.158000
     44 H11          1.8380     2.1150    -1.6570 ha         1 8EN       0.146000
     45 H12          4.2420    -3.1630    -3.2280 h4         1 8EN       0.227000
     46 H13          5.9840    -4.2470    -7.4910 hc         1 8EN       0.065033
     47 H14          6.6460    -5.3060    -6.2370 hc         1 8EN       0.065033
     48 H15          7.4640    -3.7890    -6.6350 hc         1 8EN       0.065033
     49 H16         -0.5510    -0.0020     3.3300 ha         1 8EN       0.130000
     50 H17         -1.7750    -0.0060     1.1920 ha         1 8EN       0.136000
     51 H18          1.7260     0.5380     4.3920 hn         1 8EN       0.325500
     52 H19          5.6900    -1.7660    -6.4750 hn         1 8EN       0.335500
@<TRIPOS>BOND
     1    31    19 1
     2    33    19 1
     3    32    19 1
     4    19     7 1
     5     7     6 ar
     6     7     8 ar
     7     6     5 ar
     8     8    25 ar
     9     5     4 ar
    10    25     4 ar
    11    25    24 1
    12    26    24 2
    13    24    23 1
    14    23    20 1
    15    20    21 ar
    16    20     3 ar
    17    21    22 ar
    18     3     2 ar
    19     2    10 1
    20     2     1 ar
    21    22     1 ar
    22    10    11 2
    23    10    14 1
    24     1     9 1
    25    11    27 1
    26    14    13 2
    27    27    15 1
    28    27    12 1
    29    15    16 2
    30    30    17 2
    31    13    12 1
    32    12    28 2
    33    16    28 1
    34    16    29 1
    35    17    29 1
    36    17    18 1
    37     3    34 1
    38     4    35 1
    39     5    36 1
    40     6    37 1
    41     8    38 1
    42     9    39 1
    43     9    40 1
    44     9    41 1
    45    11    42 1
    46    13    43 1
    47    14    44 1
    48    15    45 1
    49    18    46 1
    50    18    47 1
    51    18    48 1
    52    21    49 1
    53    22    50 1
    54    23    51 1
    55    29    52 1
@<TRIPOS>SUBSTRUCTURE
     1 8EN         1 TEMP              0 ****  ****    0 ROOT
