@<TRIPOS>MOLECULE
8EN
   52    55     1     0     0
SMALL
bcc


@<TRIPOS>ATOM
      1 C1           0.0000     0.0000     0.0000 ca         1 8EN      -0.078300
      2 C2           1.3940     0.0000     0.0000 ca         1 8EN      -0.025000
      3 C3           2.0870     0.0000     1.2070 ca         1 8EN      -0.084000
      4 C11          3.3610    -0.1200     6.1650 ca         1 8EN      -0.053000
      5 C12          4.0000    -0.1990     7.3850 ca         1 8EN      -0.113000
      6 C13          5.1910    -0.8920     7.5030 ca         1 8EN      -0.022000
      7 C14          5.7510    -1.5110     6.3990 ca         1 8EN      -0.221300
      8 C15          5.1220    -1.4400     5.1730 ca         1 8EN       0.029000
      9 C16         -0.7530     0.0000    -1.3050 c3         1 8EN       0.058200
     10 C17          2.1380    -0.0010    -1.2840 cc         1 8EN      -0.024000
     11 C18          2.7430    -1.1390    -1.7190 cd         1 8EN      -0.261300
     12 C20          3.5200    -0.0180    -3.6620 cd         1 8EN      -0.239300
     13 C21          2.8960     1.1700    -3.2310 cd         1 8EN      -0.035000
     14 C22          2.2140     1.1810    -2.0570 cc         1 8EN      -0.122000
     15 C23          4.1150    -2.1380    -3.5550 cd         1 8EN      -0.455100
     16 C24          4.6060    -1.5900    -4.6960 cc         1 8EN       0.055200
     17 C27          5.6780    -3.5590    -5.4990 c          1 8EN       0.555100
     18 C28          6.5010    -4.2760    -6.5390 c3         1 8EN      -0.067100
     19 C30          7.0490    -2.2630     6.5360 c3         1 8EN       0.642200
     20 C4           1.3850     0.0000     2.4040 ca         1 8EN      -0.103400
     21 C5          -0.0050     0.0000     2.3950 ca         1 8EN      -0.120000
     22 C6          -0.6910    -0.0060     1.1950 ca         1 8EN      -0.086000
     23 N7           2.0760     0.0050     3.6200 ns         1 8EN      -0.030100
     24 C8           3.2380    -0.6660     3.7370 c          1 8EN       0.585700
     25 C9           3.9180    -0.7460     5.0480 ca         1 8EN      -0.167600
     26 O10          3.7300    -1.2050     2.7640 o          1 8EN      -0.633100
     27 N19          3.4290    -1.1520    -2.8970 na         1 8EN       0.636700
     28 N25          4.2360    -0.3050    -4.7420 nc         1 8EN      -0.280600
     29 N26          5.3720    -2.2570    -5.6630 ns         1 8EN       0.013900
     30 O29          5.2930    -4.1540    -4.5150 o          1 8EN      -0.643100
     31 F31          7.4900    -2.1950     7.8620 f          1 8EN      -0.205967
     32 F32          6.8530    -3.6000     6.1780 f          1 8EN      -0.205967
     33 F33          8.0100    -1.6910     5.6950 f          1 8EN      -0.205967
     34 H1           3.1700    -0.0000     1.2120 ha         1 8EN       0.152000
     35 H2           2.4270     0.4220     6.0740 ha         1 8EN       0.103000
     36 H3           3.5680     0.2850     8.2530 ha         1 8EN       0.114000
     37 H4           5.6880    -0.9510     8.4640 ha         1 8EN       0.122000
     38 H5           5.5610    -1.9260     4.3090 ha         1 8EN       0.140000
     39 H6          -1.7950    -0.2340    -1.1220 hc         1 8EN       0.011700
     40 H7          -0.6790     0.9780    -1.7650 hc         1 8EN       0.011700
     41 H8          -0.3270    -0.7430    -1.9680 hc         1 8EN       0.011700
     42 H9           2.6800    -2.0420    -1.1240 h4         1 8EN       0.152000
     43 H10          2.9610     2.0700    -3.8320 ha         1 8EN       0.122000
     44 H11          1.8380     2.1150    -1.6570 ha         1 8EN       0.119000
     45 H12          4.2420    -3.1630    -3.2280 h4         1 8EN       0.217000
     46 H13          5.9840    -4.2470    -7.4910 hc         1 8EN       0.024367
     47 H14          6.6460    -5.3060    -6.2370 hc         1 8EN       0.024367
     48 H15          7.4640    -3.7890    -6.6350 hc         1 8EN       0.024367
     49 H16         -0.5510    -0.0020     3.3300 ha         1 8EN       0.105000
     50 H17         -1.7750    -0.0060     1.1920 ha         1 8EN       0.109000
     51 H18          1.7260     0.5380     4.3920 hn         1 8EN       0.172500
     52 H19          5.6900    -1.7660    -6.4750 hn         1 8EN       0.169500
@<TRIPOS>BOND
     1     1     2 ar  
     2     1     9 1   
     3     1    22 ar  
     4     2     3 ar  
     5     2    10 1   
     6     3    20 ar  
     7     3    34 1   
     8     4     5 ar  
     9     4    25 ar  
    10     4    35 1   
    11     5     6 ar  
    12     5    36 1   
    13     6     7 ar  
    14     6    37 1   
    15     7     8 ar  
    16     7    19 1   
    17     8    25 ar  
    18     8    38 1   
    19     9    39 1   
    20     9    40 1   
    21     9    41 1   
    22    10    11 2   
    23    10    14 1   
    24    11    27 1   
    25    11    42 1   
    26    12    13 1   
    27    12    27 1   
    28    12    28 2   
    29    13    14 2   
    30    13    43 1   
    31    14    44 1   
    32    15    16 2   
    33    15    27 1   
    34    15    45 1   
    35    16    28 1   
    36    16    29 1   
    37    17    18 1   
    38    17    29 1   
    39    17    30 2   
    40    18    46 1   
    41    18    47 1   
    42    18    48 1   
    43    19    31 1   
    44    19    32 1   
    45    19    33 1   
    46    20    21 ar  
    47    20    23 1   
    48    21    22 ar  
    49    21    49 1   
    50    22    50 1   
    51    23    24 1   
    52    23    51 1   
    53    24    25 1   
    54    24    26 2   
    55    29    52 1   
@<TRIPOS>SUBSTRUCTURE
     1 8EN         1 TEMP              0 ****  ****    0 ROOT
