@<TRIPOS>MOLECULE
molecule
   44    45     1     0     0
SMALL
bcc


@<TRIPOS>ATOM
      1 C4'          0.0000     0.0000     0.0000 ca         1 8EO       0.717200
      2 C5'          1.3960     0.0000     0.0000 ca         1 8EO      -0.409900
      3 C6'          2.0520     0.0000     1.2150 ca         1 8EO       0.482200
      4 N1'          1.3410    -0.0000     2.3340 nb         1 8EO      -0.752000
      5 N3'         -0.6430    -0.0010     1.1640 nb         1 8EO      -0.777000
      6 C2'          0.0230    -0.0000     2.3010 ca         1 8EO       0.689300
      7 CM2         -0.7430    -0.0000     3.5980 c3         1 8EO      -0.118400
      8 C7           3.4650     5.8220    -2.0040 c3         1 8EO       0.232400
      9 C2           0.9790     2.0200    -2.2910 c3         1 8EO       0.137400
     10 C7'          2.1680    -0.0010    -1.2950 c3         1 8EO       0.103600
     11 C4           3.3060     1.9750    -1.9190 c2         1 8EO      -0.014700
     12 C5           3.2770     3.3790    -2.4930 c3         1 8EO       0.050100
     13 N4'         -0.7040     0.0050    -1.1940 nv         1 8EO      -1.059500
     14 N3           2.2140     1.3590    -1.8370 nh         1 8EO      -0.178100
     15 OB1          5.4590    11.0660    -0.3870 o          1 8EO      -0.660167
     16 OA2          2.3140     8.8920    -1.9660 o          1 8EO      -0.840500
     17 OB3          4.8580    10.6910     2.0360 o          1 8EO      -0.660167
     18 OB2          3.1170    11.6780     0.3300 o          1 8EO      -0.660167
     19 OA1          4.8170     8.6360    -2.1520 o          1 8EO      -0.840500
     20 O8           3.5530     6.8010    -0.9670 os         1 8EO      -0.604200
     21 OA3          3.8770     9.1680     0.1290 os         1 8EO      -0.711800
     22 PB           4.3520    10.6600     0.5080 p5         1 8EO       1.296900
     23 PA           3.6660     8.3810    -1.2580 p5         1 8EO       1.431800
     24 S1           1.6230     3.4180    -3.2980 ss         1 8EO      -0.354200
     25 H1           3.1340     0.0000     1.2540 h4         1 8EO       0.028100
     26 H2           4.6810     0.3500    -1.8930 hc         1 8EO       0.035700
     27 H3           4.6030     1.2710    -0.3850 hc         1 8EO       0.035700
     28 H4           5.4310     1.9490    -1.7930 hc         1 8EO       0.035700
     29 H5          -1.2450     0.9520     3.7210 hc         1 8EO       0.054700
     30 H6          -0.0570    -0.1560     4.4220 hc         1 8EO       0.054700
     31 H7          -1.4770    -0.7970     3.5840 hc         1 8EO       0.054700
     32 H8           2.5830     6.0100    -2.6040 h1         1 8EO       0.028200
     33 H9           4.3470     5.8800    -2.6300 h1         1 8EO       0.028200
     34 H10          2.4900     4.3690    -0.7560 hc         1 8EO       0.055700
     35 H11          4.2540     4.2380    -0.7830 hc         1 8EO       0.055700
     36 H12          0.3880     1.3480    -2.9020 h2         1 8EO       0.067700
     37 H13          0.4090     2.3870    -1.4460 h2         1 8EO       0.067700
     38 H14          3.1770    -0.3520    -1.1130 h1         1 8EO       0.052200
     39 H15          1.6810    -0.6570    -2.0050 h1         1 8EO       0.052200
     40 H17          4.0630     3.5100    -3.2270 h1         1 8EO       0.092700
     41 H18         -1.3770     0.7240    -1.3730 hn         1 8EO       0.438300
     42 H19         -0.5880    -0.7450    -1.8460 hn         1 8EO       0.438300
     43 C6           3.3710     4.4270    -1.3830 c3         1 8EO      -0.085400
     44 CM4          4.5960     1.3420    -1.4660 c3         1 8EO      -0.089400
@<TRIPOS>BOND
     1    44    11 1
     2    11    14 2
     3    11    12 1
     4    43    12 1
     5    43     8 1
     6    10    14 1
     7    10     2 1
     8     3     4 ar
     9     3     2 ar
    10    14     9 1
    11    15    22 1
    12    12    24 1
    13    20     8 1
    14    20    23 1
    15     4     6 ar
    16     2     1 ar
    17    19    23 1
    18     9    24 1
    19    23    21 1
    20    23    16 1
    21    22    21 1
    22    22    17 1
    23    22    18 1
    24     6     7 1
    25     6     5 ar
    26     1     5 ar
    27     1    13 1
    28     3    25 1
    29    44    26 1
    30    44    27 1
    31    44    28 1
    32     7    29 1
    33     7    30 1
    34     7    31 1
    35     8    32 1
    36     8    33 1
    37    43    34 1
    38    43    35 1
    39     9    36 1
    40     9    37 1
    41    10    38 1
    42    10    39 1
    43    12    40 1
    44    13    41 1
    45    13    42 1
@<TRIPOS>SUBSTRUCTURE
     1 8EO         1 TEMP              0 ****  ****    0 ROOT
