@<TRIPOS>MOLECULE
8EP
   36    37     1     0     0
SMALL
bcc


@<TRIPOS>ATOM
      1 OAC          0.0000     0.0000     0.0000 o          1 8EP      -0.871800
      2 CAN          1.3420     0.0000     0.0000 c          1 8EP       0.991600
      3 OAE          1.9460     0.0000    -1.0470 o          1 8EP      -0.871800
      4 CAT          2.0970     0.0000     1.3040 c3         1 8EP       0.030800
      5 CB           2.2320    -1.4320     1.8250 c3         1 8EP      -0.009400
      6 CA           0.8480    -2.0780     1.9110 c3         1 8EP      -0.201500
      7 N            0.0410    -1.3730     2.9160 nz         1 8EP       0.035400
      8 C            0.9920    -3.5240     2.3060 c          1 8EP       0.967600
      9 O            0.8060    -3.8590     3.4520 o          1 8EP      -0.855300
     10 OXT          1.3250    -4.4410     1.3840 o          1 8EP      -0.855300
     11 OAL          1.4020     0.8050     2.2690 os         1 8EP      -0.403600
     12 CAS          2.2630     1.8520     2.7190 c3         1 8EP       0.141100
     13 CAQ          1.5020     3.1150     3.0790 c3         1 8EP       0.174100
     14 OAG          2.3960     4.0410     3.7000 oh         1 8EP      -0.586800
     15 CAP          0.9010     3.7550     1.8260 c3         1 8EP       0.131100
     16 OAF         -0.0500     2.8640     1.2390 oh         1 8EP      -0.498800
     17 CAH          2.0380     4.0250     0.8330 c3         1 8EP       0.196400
     18 OAK          2.6530     2.7840     0.4970 os         1 8EP      -0.348600
     19 CAR          3.2740     2.0890     1.5810 c3         1 8EP       0.156100
     20 CAJ          3.4970     0.6200     1.1010 c3         1 8EP      -0.055400
     21 HB           2.8560    -2.0040     1.1490 hc         1 8EP       0.037200
     22 HBA          2.6850    -1.4160     2.8090 hc         1 8EP       0.037200
     23 HA           0.3590    -2.0140     0.9460 hx         1 8EP       0.149700
     24 HN          -0.7200    -0.9040     2.4650 hn         1 8EP       0.219467
     25 HNA         -0.3190    -2.0330     3.5770 hn         1 8EP       0.219467
     26 HAS          2.8000     1.5090     3.5950 h1         1 8EP      -0.003300
     27 HAQ          0.7050     2.8650     3.7680 h1         1 8EP      -0.003300
     28 HOAG         2.1170     4.2010     4.5860 ho         1 8EP       0.382000
     29 HAP          0.4200     4.6890     2.0900 h1         1 8EP      -0.013300
     30 HOAF        -0.8700     3.3140     1.1210 ho         1 8EP       0.365000
     31 HAH          2.7700     4.6810     1.2880 h1         1 8EP       0.008200
     32 HAHA         1.6370     4.4840    -0.0620 h1         1 8EP       0.008200
     33 HAR          4.1890     2.5610     1.9200 h1         1 8EP       0.014700
     34 HAJ          3.7800     0.5950     0.0550 hc         1 8EP       0.046700
     35 HAJA         4.2320     0.1200     1.7200 hc         1 8EP       0.046700
     36 HN3          0.6170    -0.7190     3.4080 hn         1 8EP       0.219467
@<TRIPOS>BOND
     1     1     2 1   
     2     2     3 1   
     3     2     4 1   
     4     4     5 1   
     5     4    11 1   
     6     4    20 1   
     7     5     6 1   
     8     5    21 1   
     9     5    22 1   
    10     6     7 1   
    11     6     8 1   
    12     6    23 1   
    13     7    24 1   
    14     7    25 1   
    15     7    36 1   
    16     8     9 1   
    17     8    10 1   
    18    11    12 1   
    19    12    13 1   
    20    12    19 1   
    21    12    26 1   
    22    13    14 1   
    23    13    15 1   
    24    13    27 1   
    25    14    28 1   
    26    15    16 1   
    27    15    17 1   
    28    15    29 1   
    29    16    30 1   
    30    17    18 1   
    31    17    31 1   
    32    17    32 1   
    33    18    19 1   
    34    19    20 1   
    35    19    33 1   
    36    20    34 1   
    37    20    35 1   
@<TRIPOS>SUBSTRUCTURE
     1 8EP         1 TEMP              0 ****  ****    0 ROOT
