@<TRIPOS>MOLECULE
molecule
   30    31     1     0     0
SMALL
bcc


@<TRIPOS>ATOM
      1 C4           0.0000     0.0000     0.0000 ca         1 8EQ       0.080100
      2 C5           0.6770    -0.0000     2.0930 c          1 8EQ       0.816600
      3 C6           3.1730     0.0010     1.8310 c3         1 8EQ       0.130000
      4 C7           3.6530     1.4440     2.0030 c3         1 8EQ      -0.207400
      5 C8           5.0720     1.4440     2.5090 c          1 8EQ       0.895600
      6 C10          2.0890     0.0000    -1.1990 ca         1 8EQ      -0.079000
      7 Cl           2.2670    -0.0010    -3.8990 cl         1 8EQ      -0.096400
      8 C11          1.3980    -0.0010    -2.3960 ca         1 8EQ       0.005400
      9 C2           0.0090    -0.0050    -2.3980 ca         1 8EQ       0.134100
     10 O           -0.6680    -0.0060    -3.5790 os         1 8EQ      -0.318900
     11 C1          -2.0950    -0.0110    -3.5080 c3         1 8EQ       0.135400
     12 C           -2.6750    -0.0120    -4.9230 c3         1 8EQ      -0.092100
     13 C9           1.3950     0.0000     0.0000 ca         1 8EQ      -0.028400
     14 C3          -0.6900     0.0000    -1.2020 ca         1 8EQ      -0.194000
     15 N            1.7930     0.0000     1.3380 n          1 8EQ      -0.362000
     16 O2           0.6520     0.0030     3.3090 o          1 8EQ      -0.603500
     17 O1          -0.4020     0.0040     1.2950 os         1 8EQ      -0.284200
     18 O4           5.6410     0.3970     2.7120 o          1 8EQ      -0.846300
     19 O3           5.7040     2.6070     2.7350 o          1 8EQ      -0.846300
     20 H1           3.8110    -0.5100     1.1190 h1         1 8EQ       0.076200
     21 H2           3.2160    -0.5100     2.7850 h1         1 8EQ       0.076200
     22 H3           3.6110     1.9550     1.0480 hc         1 8EQ       0.043700
     23 H4           3.0160     1.9540     2.7140 hc         1 8EQ       0.043700
     24 H5           3.1710    -0.0590    -1.1990 ha         1 8EQ       0.170000
     25 H6          -2.4270    -0.8980    -2.9810 h1         1 8EQ       0.034700
     26 H7          -2.4340     0.8710    -2.9790 h1         1 8EQ       0.034700
     27 H8          -2.3360    -0.8940    -5.4530 hc         1 8EQ       0.045367
     28 H9          -3.7570    -0.0160    -4.8700 hc         1 8EQ       0.045367
     29 H10         -2.3430     0.8750    -5.4500 hc         1 8EQ       0.045367
     30 H11         -1.7730    -0.0030    -1.2060 ha         1 8EQ       0.147000
@<TRIPOS>BOND
     1    18     5 1
     2     5    19 1
     3     5     4 1
     4     7     8 1
     5     4     3 1
     6     3    15 1
     7     6     8 ar
     8     6    13 ar
     9     8     9 ar
    10    13    15 1
    11    13     1 ar
    12    15     2 1
    13     9    10 1
    14     9    14 ar
    15    10    11 1
    16     1    14 ar
    17     1    17 1
    18     2    16 2
    19     2    17 1
    20    12    11 1
    21     3    20 1
    22     3    21 1
    23     4    22 1
    24     4    23 1
    25     6    24 1
    26    11    25 1
    27    11    26 1
    28    12    27 1
    29    12    28 1
    30    12    29 1
    31    14    30 1
@<TRIPOS>SUBSTRUCTURE
     1 8EQ         1 TEMP              0 ****  ****    0 ROOT
