@<TRIPOS>MOLECULE
8ES
   75    81     1     0     0
SMALL
bcc


@<TRIPOS>ATOM
      1 N1           0.0000     0.0000     0.0000 n          1 8ES       0.038700
      2 N3          -5.2520     3.9740    -4.8160 na         1 8ES       0.692900
      3 C4          -2.7650     0.0140     2.5310 c3         1 8ES       0.016900
      4 C5           1.3530     0.0000     0.0000 c          1 8ES       0.634100
      5 C6          -0.7270    -0.0060    -1.2720 c3         1 8ES       0.073300
      6 C7          -0.8440     1.4040    -1.7910 ca         1 8ES      -0.125300
      7 C8          -1.9840     2.1420    -1.5280 ca         1 8ES      -0.100000
      8 C10         -1.0600     3.9950    -2.7420 cp         1 8ES      -0.049000
      9 C13         -3.4280     4.8220    -4.1860 cc         1 8ES       0.580500
     10 C15         -1.3890     7.9820    -4.2040 ca         1 8ES      -0.112000
     11 C17         -0.1470     6.2960    -3.0330 ca         1 8ES      -0.101000
     12 C20          1.8400     0.0010     3.7240 ca         1 8ES      -0.099000
     13 C21          3.2030     0.0000     3.8170 ca         1 8ES      -0.041000
     14 C22          3.9990     0.0010     2.6720 ca         1 8ES      -0.148400
     15 C24          6.0480    -1.1490     3.0440 c          1 8ES       0.645700
     16 C26          5.8450    -3.6300     3.4310 cc         1 8ES      -0.038000
     17 C28          3.6780    -4.2850     3.0940 cd         1 8ES      -0.019100
     18 O1           7.2530    -1.1390     3.2160 o          1 8ES      -0.647100
     19 C25          5.3090    -2.4140     3.1090 cd         1 8ES      -0.083700
     20 S            3.5920    -2.6100     2.7870 ss         1 8ES      -0.216800
     21 C27          4.9240    -4.6500     3.4170 cc         1 8ES      -0.149000
     22 N6           5.3930     0.0010     2.7940 n          1 8ES      -0.012000
     23 C29          6.1400     1.2530     2.6490 c3         1 8ES       0.107300
     24 C30          6.2740     1.9160     3.9960 ca         1 8ES      -0.129300
     25 C35          7.3600     1.6300     4.8020 ca         1 8ES      -0.083500
     26 C34          7.4820     2.2380     6.0380 ca         1 8ES      -0.107000
     27 C33          6.5190     3.1320     6.4670 ca         1 8ES      -0.096000
     28 C32          5.4330     3.4170     5.6610 ca         1 8ES      -0.107000
     29 C31          5.3140     2.8140     4.4230 ca         1 8ES      -0.083500
     30 C1           1.2280     0.0000     2.4690 ca         1 8ES       0.178400
     31 C23          3.4180    -0.0000     1.4150 ca         1 8ES       0.009000
     32 C            2.0300     0.0000     1.3060 ca         1 8ES      -0.222600
     33 O            1.9860    -0.0000    -1.0410 o          1 8ES      -0.668500
     34 C2          -0.6920    -0.0000     1.1700 cc         1 8ES       0.317900
     35 C3          -2.1980     0.0010     1.1110 c3         1 8ES      -0.081700
     36 N           -0.1220     0.0010     2.3360 nd         1 8ES      -0.551100
     37 C19          0.1910     1.9580    -2.5220 ca         1 8ES      -0.100000
     38 C18          0.0900     3.2490    -2.9990 ca         1 8ES      -0.054000
     39 C9          -2.0980     3.4340    -2.0010 ca         1 8ES      -0.054000
     40 C11         -1.1750     5.3820    -3.2520 cp         1 8ES       0.009000
     41 C16         -0.2590     7.5870    -3.5090 ca         1 8ES      -0.082000
     42 C14         -2.4200     7.0890    -4.4250 ca         1 8ES      -0.067000
     43 C12         -2.3230     5.7840    -3.9520 ca         1 8ES      -0.122500
     44 N5          -3.4690     3.5400    -3.7990 nc         1 8ES      -0.343000
     45 N4          -4.5970     3.0550    -4.1970 nd         1 8ES      -0.381800
     46 N2          -4.5570     5.0600    -4.8250 nd         1 8ES      -0.705800
     47 H2          -3.8470     0.0140     2.4880 hc         1 8ES       0.011033
     48 H3          -2.4250    -0.8660     3.0640 hc         1 8ES       0.011033
     49 H4          -2.4240     0.9030     3.0480 hc         1 8ES       0.011033
     50 H5          -0.1900    -0.6120    -1.9920 h1         1 8ES       0.048200
     51 H6          -1.7170    -0.4180    -1.1210 h1         1 8ES       0.048200
     52 H7          -2.7900     1.7040    -0.9520 ha         1 8ES       0.120500
     53 H8          -1.4680     8.9970    -4.5740 ha         1 8ES       0.106000
     54 H9           0.7400     5.9940    -2.4900 ha         1 8ES       0.115000
     55 H10          1.2350     0.0010     4.6230 ha         1 8ES       0.123000
     56 H11          3.6720    -0.0010     4.7940 ha         1 8ES       0.119000
     57 H12          6.8910    -3.7740     3.6730 ha         1 8ES       0.137000
     58 H13          2.8350    -4.9640     3.0370 h4         1 8ES       0.147000
     59 H14          5.1880    -5.6750     3.6490 ha         1 8ES       0.121000
     60 H15          7.1250     1.0420     2.2510 h1         1 8ES       0.038200
     61 H16          5.6110     1.9130     1.9720 h1         1 8ES       0.038200
     62 H17          8.1150     0.9300     4.4660 ha         1 8ES       0.117000
     63 H18          8.3330     2.0140     6.6690 ha         1 8ES       0.103000
     64 H19          6.6140     3.6060     7.4360 ha         1 8ES       0.101000
     65 H20          4.6790     4.1200     5.9960 ha         1 8ES       0.103000
     66 H21          4.4630     3.0390     3.7920 ha         1 8ES       0.117000
     67 H22          4.0370    -0.0000     0.5260 ha         1 8ES       0.133000
     68 H23         -2.5390    -0.8880     0.5940 hc         1 8ES       0.036700
     69 H24         -2.5380     0.8810     0.5780 hc         1 8ES       0.036700
     70 H25          1.0830     1.3770    -2.7210 ha         1 8ES       0.120500
     71 H26          0.9000     3.6810    -3.5730 ha         1 8ES       0.108000
     72 H27         -2.9930     4.0100    -1.7960 ha         1 8ES       0.108000
     73 H28          0.5430     8.2950    -3.3390 ha         1 8ES       0.104000
     74 H29         -3.3010     7.4040    -4.9700 ha         1 8ES       0.119000
     75 H1          -6.1570     3.8630    -5.2270 hn         1 8ES       0.177700
@<TRIPOS>BOND
     1     1     4 1   
     2     1     5 1   
     3     1    34 1   
     4     2    45 1   
     5     2    46 1   
     6     2    75 1   
     7     3    35 1   
     8     3    47 1   
     9     3    48 1   
    10     3    49 1   
    11     4    32 1   
    12     4    33 2   
    13     5     6 1   
    14     5    50 1   
    15     5    51 1   
    16     6     7 ar  
    17     6    37 ar  
    18     7    39 ar  
    19     7    52 1   
    20     8    38 ar  
    21     8    39 ar  
    22     8    40 1   
    23     9    43 1   
    24     9    44 1   
    25     9    46 2   
    26    10    41 ar  
    27    10    42 ar  
    28    10    53 1   
    29    11    40 ar  
    30    11    41 ar  
    31    11    54 1   
    32    12    13 ar  
    33    12    30 ar  
    34    12    55 1   
    35    13    14 ar  
    36    13    56 1   
    37    14    22 1   
    38    14    31 ar  
    39    15    18 2   
    40    15    19 1   
    41    15    22 1   
    42    16    19 2   
    43    16    21 1   
    44    16    57 1   
    45    17    20 1   
    46    17    21 2   
    47    17    58 1   
    48    19    20 1   
    49    21    59 1   
    50    22    23 1   
    51    23    24 1   
    52    23    60 1   
    53    23    61 1   
    54    24    25 ar  
    55    24    29 ar  
    56    25    26 ar  
    57    25    62 1   
    58    26    27 ar  
    59    26    63 1   
    60    27    28 ar  
    61    27    64 1   
    62    28    29 ar  
    63    28    65 1   
    64    29    66 1   
    65    30    32 ar  
    66    30    36 1   
    67    31    32 ar  
    68    31    67 1   
    69    34    35 1   
    70    34    36 2   
    71    35    68 1   
    72    35    69 1   
    73    37    38 ar  
    74    37    70 1   
    75    38    71 1   
    76    39    72 1   
    77    40    43 ar  
    78    41    73 1   
    79    42    43 ar  
    80    42    74 1   
    81    44    45 2   
@<TRIPOS>SUBSTRUCTURE
     1 8ES         1 TEMP              0 ****  ****    0 ROOT
