@<TRIPOS>MOLECULE
molecule
   75    81     1     0     0
SMALL
bcc


@<TRIPOS>ATOM
      1 N1           0.0000     0.0000     0.0000 n          1 8ES      -0.372300
      2 N3          -5.2520     3.9740    -4.8160 na         1 8ES       0.196900
      3 C4          -2.7650     0.0140     2.5310 c3         1 8ES      -0.076100
      4 C5           1.3530     0.0000     0.0000 c          1 8ES       0.713100
      5 C6          -0.7270    -0.0060    -1.2720 c3         1 8ES       0.136300
      6 C7          -0.8440     1.4040    -1.7910 ca         1 8ES      -0.113300
      7 C8          -1.9840     2.1420    -1.5280 ca         1 8ES      -0.120500
      8 C10         -1.0600     3.9950    -2.7420 cp         1 8ES      -0.050000
      9 C13         -3.4280     4.8220    -4.1860 cc         1 8ES       0.576500
     10 C15         -1.3890     7.9820    -4.2040 ca         1 8ES      -0.136000
     11 C17         -0.1470     6.2960    -3.0330 ca         1 8ES      -0.123000
     12 C20          1.8400     0.0010     3.7240 ca         1 8ES      -0.127000
     13 C21          3.2030     0.0000     3.8170 ca         1 8ES      -0.078000
     14 C22          3.9990     0.0010     2.6720 ca         1 8ES      -0.015400
     15 C24          6.0480    -1.1490     3.0440 c          1 8ES       0.719700
     16 C26          5.8450    -3.6300     3.4310 cd         1 8ES      -0.076000
     17 C28          3.6780    -4.2850     3.0940 cc         1 8ES      -0.113100
     18 O1           7.2530    -1.1390     3.2160 o          1 8ES      -0.601100
     19 C25          5.3090    -2.4140     3.1090 cc         1 8ES      -0.134700
     20 S            3.5920    -2.6100     2.7870 ss         1 8ES      -0.049800
     21 C27          4.9240    -4.6500     3.4170 cd         1 8ES      -0.178000
     22 N6           5.3930     0.0010     2.7940 n          1 8ES      -0.395000
     23 C29          6.1400     1.2530     2.6490 c3         1 8ES       0.164300
     24 C30          6.2740     1.9160     3.9960 ca         1 8ES      -0.119300
     25 C35          7.3600     1.6300     4.8020 ca         1 8ES      -0.108500
     26 C34          7.4820     2.2380     6.0380 ca         1 8ES      -0.135000
     27 C33          6.5190     3.1320     6.4670 ca         1 8ES      -0.123000
     28 C32          5.4330     3.4170     5.6610 ca         1 8ES      -0.135000
     29 C31          5.3140     2.8140     4.4230 ca         1 8ES      -0.108500
     30 C1           1.2280     0.0000     2.4690 ca         1 8ES       0.211400
     31 C23          3.4180    -0.0000     1.4150 ca         1 8ES      -0.042000
     32 C            2.0300     0.0000     1.3060 ca         1 8ES      -0.214600
     33 O            1.9860    -0.0000    -1.0410 o          1 8ES      -0.626500
     34 C2          -0.6920    -0.0000     1.1700 cc         1 8ES       0.514900
     35 C3          -2.1980     0.0010     1.1110 c3         1 8ES      -0.126700
     36 N           -0.1220     0.0010     2.3360 nd         1 8ES      -0.657100
     37 C19          0.1910     1.9580    -2.5220 ca         1 8ES      -0.120500
     38 C18          0.0900     3.2490    -2.9990 ca         1 8ES      -0.077500
     39 C9          -2.0980     3.4340    -2.0010 ca         1 8ES      -0.077500
     40 C11         -1.1750     5.3820    -3.2520 cp         1 8ES       0.001000
     41 C16         -0.2590     7.5870    -3.5090 ca         1 8ES      -0.111000
     42 C14         -2.4200     7.0890    -4.4250 ca         1 8ES      -0.094000
     43 C12         -2.3230     5.7840    -3.9520 ca         1 8ES      -0.111500
     44 N5          -3.4690     3.5400    -3.7990 nc         1 8ES      -0.377000
     45 N4          -4.5970     3.0550    -4.1970 nd         1 8ES      -0.207800
     46 N2          -4.5570     5.0600    -4.8250 nd         1 8ES      -0.568800
     47 H2          -3.8470     0.0140     2.4880 hc         1 8ES       0.046033
     48 H3          -2.4250    -0.8660     3.0640 hc         1 8ES       0.046033
     49 H4          -2.4240     0.9030     3.0480 hc         1 8ES       0.046033
     50 H5          -0.1900    -0.6120    -1.9920 h1         1 8ES       0.075200
     51 H6          -1.7170    -0.4180    -1.1210 h1         1 8ES       0.075200
     52 H7          -2.7900     1.7040    -0.9520 ha         1 8ES       0.141000
     53 H8          -1.4680     8.9970    -4.5740 ha         1 8ES       0.136000
     54 H9           0.7400     5.9940    -2.4900 ha         1 8ES       0.143000
     55 H10          1.2350     0.0010     4.6230 ha         1 8ES       0.156000
     56 H11          3.6720    -0.0010     4.7940 ha         1 8ES       0.155000
     57 H12          6.8910    -3.7740     3.6730 ha         1 8ES       0.167000
     58 H13          2.8350    -4.9640     3.0370 h4         1 8ES       0.168000
     59 H14          5.1880    -5.6750     3.6490 ha         1 8ES       0.147000
     60 H15          7.1250     1.0420     2.2510 h1         1 8ES       0.068700
     61 H16          5.6110     1.9130     1.9720 h1         1 8ES       0.068700
     62 H17          8.1150     0.9300     4.4660 ha         1 8ES       0.141000
     63 H18          8.3330     2.0140     6.6690 ha         1 8ES       0.129500
     64 H19          6.6140     3.6060     7.4360 ha         1 8ES       0.128000
     65 H20          4.6790     4.1200     5.9960 ha         1 8ES       0.129500
     66 H21          4.4630     3.0390     3.7920 ha         1 8ES       0.141000
     67 H22          4.0370    -0.0000     0.5260 ha         1 8ES       0.166000
     68 H23         -2.5390    -0.8880     0.5940 hc         1 8ES       0.067200
     69 H24         -2.5380     0.8810     0.5780 hc         1 8ES       0.067200
     70 H25          1.0830     1.3770    -2.7210 ha         1 8ES       0.141000
     71 H26          0.9000     3.6810    -3.5730 ha         1 8ES       0.135000
     72 H27         -2.9930     4.0100    -1.7960 ha         1 8ES       0.135000
     73 H28          0.5430     8.2950    -3.3390 ha         1 8ES       0.134000
     74 H29         -3.3010     7.4040    -4.9700 ha         1 8ES       0.148000
     75 H1          -6.1570     3.8630    -5.2270 hn         1 8ES       0.369700
@<TRIPOS>BOND
     1    28    29 ar
     2    28    27 ar
     3    29    24 ar
     4    27    26 ar
     5     3    35 1
     6    24    23 1
     7    24    25 ar
     8     5     1 1
     9     5     6 1
    10    33     4 2
    11    23    22 1
    12     1     4 1
    13     1    34 1
    14     4    32 1
    15     7     6 ar
    16     7    39 ar
    17    26    25 ar
    18    34    35 1
    19    34    36 2
    20    32    31 ar
    21    32    30 ar
    22    31    14 ar
    23     6    37 ar
    24    36    30 1
    25    30    12 ar
    26    14    22 1
    27    14    13 ar
    28    22    15 1
    29    39     8 ar
    30    12    13 ar
    31    37    38 ar
    32    15    18 2
    33    15    19 1
    34     8    38 ar
    35     8    40 1
    36    44    45 2
    37    44     9 1
    38    45     2 1
    39    40    11 ar
    40    40    43 ar
    41    11    41 ar
    42    19    16 2
    43    19    20 1
    44    16    21 1
    45     9    43 1
    46     9    46 2
    47    43    42 ar
    48    41    10 ar
    49     2    46 1
    50    42    10 ar
    51    20    17 1
    52    21    17 2
    53     2    75 1
    54     3    47 1
    55     3    48 1
    56     3    49 1
    57     5    50 1
    58     5    51 1
    59     7    52 1
    60    10    53 1
    61    11    54 1
    62    12    55 1
    63    13    56 1
    64    16    57 1
    65    17    58 1
    66    21    59 1
    67    23    60 1
    68    23    61 1
    69    25    62 1
    70    26    63 1
    71    27    64 1
    72    28    65 1
    73    29    66 1
    74    31    67 1
    75    35    68 1
    76    35    69 1
    77    37    70 1
    78    38    71 1
    79    39    72 1
    80    41    73 1
    81    42    74 1
@<TRIPOS>SUBSTRUCTURE
     1 8ES         1 TEMP              0 ****  ****    0 ROOT
