@<TRIPOS>MOLECULE
8ET
   30    32     1     0     0
SMALL
bcc


@<TRIPOS>ATOM
      1 C4           0.0000     0.0000     0.0000 ca         1 8ET      -0.072000
      2 C5           1.3670     0.0000     0.0000 ca         1 8ET      -0.216300
      3 C6           2.0620     0.0000     1.2070 ca         1 8ET       0.409200
      4 C7          -2.0710     0.0080     1.3180 ca         1 8ET      -0.085400
      5 C8          -2.6790     0.0150     2.5560 ca         1 8ET      -0.116000
      6 N2          -5.2430    -0.3450    -3.2460 nb         1 8ET      -0.585000
      7 C9          -4.0960     0.4930     0.1760 c          1 8ET       0.589700
      8 C10         -4.9550     0.3750    -1.0210 ca         1 8ET      -0.286900
      9 C11         -6.2600     0.8810    -1.0120 ca         1 8ET       0.003000
     10 C12         -7.0230     0.7460    -2.1590 ca         1 8ET      -0.231300
     11 C13         -6.4770     0.1220    -3.2660 ca         1 8ET       0.428200
     12 C14         -4.4790    -0.2420    -2.1790 ca         1 8ET       0.422200
     13 O           -4.5210     1.0320     1.1800 o          1 8ET      -0.631100
     14 C           -1.9160     0.0200     3.7190 ca         1 8ET      -0.070000
     15 C3          -0.6630     0.0070     1.2400 ca         1 8ET      -0.161300
     16 N            1.4400     0.0000     2.3610 nb         1 8ET      -0.563000
     17 C2           0.1040     0.0130     2.4300 ca         1 8ET       0.388600
     18 C1          -0.5560     0.0190     3.6710 ca         1 8ET      -0.158300
     19 H2          -0.5570     0.0000    -0.9290 ha         1 8ET       0.103000
     20 H3           1.9100    -0.0000    -0.9380 ha         1 8ET       0.112000
     21 H4           3.1450    -0.0000     1.1920 h4         1 8ET      -0.021900
     22 H6          -2.4740    -0.3970    -0.6850 hn         1 8ET       0.176500
     23 H5          -3.7600     0.0150     2.6230 ha         1 8ET       0.156000
     24 H7          -6.6630     1.3650    -0.1310 ha         1 8ET       0.132000
     25 H8          -8.0370     1.1250    -2.1900 ha         1 8ET       0.119000
     26 H9          -7.0720     0.0160    -4.1650 h4         1 8ET      -0.018900
     27 H10         -3.4710    -0.6380    -2.2000 h4         1 8ET      -0.025900
     28 H           -2.4140     0.0250     4.6820 ha         1 8ET       0.105000
     29 H1           0.0190     0.0230     4.5890 ha         1 8ET       0.119000
     30 N1          -2.8410     0.0020     0.1560 ns         1 8ET      -0.020100
@<TRIPOS>BOND
     1     1     2 ar  
     2     1    15 ar  
     3     1    19 1   
     4     2     3 ar  
     5     2    20 1   
     6     3    16 ar  
     7     3    21 1   
     8     4     5 ar  
     9     4    15 ar  
    10     4    30 1   
    11     5    14 ar  
    12     5    23 1   
    13     6    11 ar  
    14     6    12 ar  
    15     7     8 1   
    16     7    13 2   
    17     7    30 1   
    18     8     9 ar  
    19     8    12 ar  
    20     9    10 ar  
    21     9    24 1   
    22    10    11 ar  
    23    10    25 1   
    24    11    26 1   
    25    12    27 1   
    26    14    18 ar  
    27    14    28 1   
    28    15    17 ar  
    29    16    17 ar  
    30    17    18 ar  
    31    18    29 1   
    32    22    30 1   
@<TRIPOS>SUBSTRUCTURE
     1 8ET         1 TEMP              0 ****  ****    0 ROOT
