@<TRIPOS>MOLECULE
molecule
   27    27     1     0     0
SMALL
bcc


@<TRIPOS>ATOM
      1 C5           0.0000     0.0000     0.0000 ca         1 8EU      -0.120000
      2 C6           1.3820     0.0000     0.0000 ca         1 8EU      -0.082500
      3 N1           3.5540    -0.0050     1.1970 no         1 8EU       0.298200
      4 C4          -0.6910     0.0050     1.1970 ca         1 8EU      -0.020300
      5 C3          -0.0010     0.0060     2.3950 ca         1 8EU      -0.120000
      6 O3          -4.9110    -1.0360     2.3430 o          1 8EU      -0.814500
      7 C2           1.3820     0.0010     2.3940 ca         1 8EU      -0.082500
      8 C7          -2.1980     0.0120     1.1980 c3         1 8EU       0.257700
      9 C8          -4.4450    -3.5100     1.3560 c3         1 8EU      -0.260600
     10 C1           2.0730     0.0000     1.1970 ca         1 8EU      -0.172200
     11 C9          -5.9300    -3.8520     1.4830 c3         1 8EU      -0.052100
     12 O1           4.1620    -0.0090     2.2520 o          1 8EU      -0.226500
     13 O4          -4.9170    -1.2070    -0.1740 o          1 8EU      -0.814500
     14 P1          -4.2470    -1.7040     1.2020 p5         1 8EU       1.167600
     15 O5          -2.6800    -1.3340     1.2010 os         1 8EU      -0.601200
     16 O2           4.1630    -0.0070     0.1420 o          1 8EU      -0.226500
     17 H1          -0.5420    -0.0000    -0.9380 ha         1 8EU       0.156500
     18 H2           1.9240    -0.0040    -0.9380 ha         1 8EU       0.153500
     19 H3          -0.5420     0.0080     3.3330 ha         1 8EU       0.156500
     20 H4           1.9240     0.0010     3.3320 ha         1 8EU       0.153500
     21 H5          -2.5570     0.5220     0.3120 h1         1 8EU       0.045700
     22 H6          -2.5570     0.5260     2.0810 h1         1 8EU       0.045700
     23 H7          -4.0410    -3.9790     0.4670 hc         1 8EU       0.039200
     24 H8          -3.9150    -3.8730     2.2290 hc         1 8EU       0.039200
     25 H9          -6.0520    -4.9280     1.5160 hc         1 8EU       0.026700
     26 H10         -6.3250    -3.4160     2.3940 hc         1 8EU       0.026700
     27 H11         -6.4670    -3.4540     0.6310 hc         1 8EU       0.026700
@<TRIPOS>BOND
     1    16     3 1
     2     7     5 ar
     3     7    10 ar
     4     3    10 1
     5     3    12 1
     6     5     4 ar
     7    10     2 ar
     8     6    14 1
     9     4     8 1
    10     4     1 ar
    11     2     1 ar
    12    14    13 1
    13    14    15 1
    14    14     9 1
    15     8    15 1
    16    11     9 1
    17     1    17 1
    18     2    18 1
    19     5    19 1
    20     7    20 1
    21     8    21 1
    22     8    22 1
    23     9    23 1
    24     9    24 1
    25    11    25 1
    26    11    26 1
    27    11    27 1
@<TRIPOS>SUBSTRUCTURE
     1 8EU         1 TEMP              0 ****  ****    0 ROOT
