@<TRIPOS>MOLECULE
molecule
   42    44     1     0     0
SMALL
bcc


@<TRIPOS>ATOM
      1 C10          0.0000     0.0000     0.0000 ca         1 8EV       0.450600
      2 C22          6.2560     0.4250     1.1610 ca         1 8EV      -0.196000
      3 C23          7.6380     0.6120     1.1540 ca         1 8EV       0.010000
      4 N28          9.2170    -1.4130     1.1650 n1         1 8EV      -0.366800
      5 C27          8.5170    -0.5200     1.1490 cg         1 8EV       0.240800
      6 C24          8.1620     1.9060     1.1510 ca         1 8EV      -0.142000
      7 C25          7.3130     2.9930     1.1550 ca         1 8EV      -0.053300
      8 C29          7.8810     4.3900     1.1520 c3         1 8EV      -0.166900
      9 N30          8.0590     4.8430    -0.2340 n7         1 8EV      -0.892200
     10 C31          8.6110     6.2030    -0.2770 c3         1 8EV       0.166100
     11 C21          5.4130     1.5240     1.1650 ca         1 8EV       0.124100
     12 C26          5.9440     2.8070     1.1620 ca         1 8EV      -0.128000
     13 O12          4.0650     1.3460     1.1720 os         1 8EV      -0.305900
     14 C11          3.5880    -0.0010     1.1740 c3         1 8EV       0.008700
     15 C08          2.0820     0.0000     1.1820 ca         1 8EV      -0.058300
     16 C09          1.4050     0.0000     0.0000 ca         1 8EV      -0.135300
     17 C07          1.4020    -0.0010     2.3980 ca         1 8EV      -0.145000
     18 C06          0.0400    -0.0060     2.4370 ca         1 8EV      -0.099000
     19 C05         -0.6880    -0.0050     1.2380 ca         1 8EV      -0.180300
     20 C04         -2.0990    -0.0110     1.2380 ca         1 8EV      -0.095000
     21 C03         -2.7450    -0.0100     0.0390 ca         1 8EV      -0.294300
     22 C02         -2.0060    -0.0050    -1.1520 ca         1 8EV       0.731200
     23 N02         -2.6780    -0.0030    -2.3660 nv         1 8EV      -1.033500
     24 N01         -0.6880    -0.0000    -1.1470 nb         1 8EV      -0.697000
     25 H1           5.8610    -0.5810     1.2320 ha         1 8EV       0.140000
     26 H2           9.2370     1.9020     1.2840 ha         1 8EV       0.144000
     27 H3           8.6720     4.1270     0.4600 h1         1 8EV       0.207700
     28 H4           7.3780     5.0190     0.4280 h1         1 8EV       0.207700
     29 H5           8.6030     4.0280    -0.4390 hn         1 8EV       0.376800
     30 H7           8.0930     6.8110     0.4550 h1         1 8EV       0.076033
     31 H8           8.6440     6.3110    -1.3540 h1         1 8EV       0.076033
     32 H9           9.4650     5.6820     0.1390 h1         1 8EV       0.076033
     33 H10          5.1030     3.3770     0.7860 ha         1 8EV       0.158000
     34 H11          3.0970     0.2240     2.1130 h1         1 8EV       0.114200
     35 H12          4.2530    -0.8530     1.1070 h1         1 8EV       0.114200
     36 H13          2.1240    -0.2160    -0.7810 ha         1 8EV       0.161000
     37 H14          1.8000    -0.5590     3.2360 ha         1 8EV       0.139000
     38 H15         -0.5990    -0.1530     3.2990 ha         1 8EV       0.139000
     39 H16         -2.7160     0.4080     2.0240 ha         1 8EV       0.143000
     40 H17         -3.7610    -0.0830     0.4070 ha         1 8EV       0.151000
     41 H18         -3.4610    -0.6060    -2.5240 hn         1 8EV       0.417300
     42 H19         -2.7780     0.7510    -3.0170 hn         1 8EV       0.417300
@<TRIPOS>BOND
     1    20    21 ar
     2    20    19 ar
     3    21    22 ar
     4    18    19 ar
     5    18    17 ar
     6    19     1 ar
     7    22    23 1
     8    22    24 ar
     9     4     5 3
    10    17    15 ar
    11     1    24 ar
    12     1    16 ar
    13     5     3 1
    14     2     3 ar
    15     2    11 ar
    16    15    16 ar
    17    15    14 1
    18    13    11 1
    19    13    14 1
    20     3     6 ar
    21    11    12 ar
    22     6     7 ar
    23    12     7 ar
    24     7     8 1
    25    10     9 1
    26     8     9 1
    27     2    25 1
    28     6    26 1
    29     8    27 1
    30     8    28 1
    31     9    29 1
    32    10    30 1
    33    10    31 1
    34    10    32 1
    35    12    33 1
    36    14    34 1
    37    14    35 1
    38    16    36 1
    39    17    37 1
    40    18    38 1
    41    20    39 1
    42    21    40 1
    43    23    41 1
    44    23    42 1
@<TRIPOS>SUBSTRUCTURE
     1 8EV         1 TEMP              0 ****  ****    0 ROOT
