@<TRIPOS>MOLECULE
molecule
   16    15     1     0     0
SMALL
bcc


@<TRIPOS>ATOM
      1 C01          0.0000     0.0000     0.0000 c3         1 8EW      -0.110900
      2 C02          1.5060     0.0000     0.0000 c2         1 8EW       0.157600
      3 C03          2.2600     0.0000     1.3050 c3         1 8EW      -0.161200
      4 C04          2.4030     1.4160     1.8030 c          1 8EW       0.909600
      5 O05          1.9420     2.3300     1.1620 o          1 8EW      -0.869300
      6 O06          3.0440     1.6600     2.9560 o          1 8EW      -0.869300
      7 C07          2.1720     0.0000    -1.1520 ce         1 8EW      -0.674200
      8 C08          1.4480    -0.1650    -2.4190 c          1 8EW       0.892800
      9 O09          0.2590    -0.4190    -2.4110 o          1 8EW      -0.876800
     10 O10          2.1010    -0.0370    -3.5920 o          1 8EW      -0.876800
     11 H1          -0.3610     0.1420     1.0110 hc         1 8EW       0.034367
     12 H2          -0.3610     0.8050    -0.6280 hc         1 8EW       0.034367
     13 H3          -0.3610    -0.9470    -0.3830 hc         1 8EW       0.034367
     14 H5           1.7170    -0.5860     2.0360 hc         1 8EW       0.038200
     15 H6           3.2430    -0.4310     1.1550 hc         1 8EW       0.038200
     16 H8           1.7080     0.8470    -1.6440 ha         1 8EW       0.302000
@<TRIPOS>BOND
     1     1     2 1
     2     9     8 1
     3     2     7 2
     4     2     3 1
     5     5     4 1
     6     7     8 1
     7     3     4 1
     8     8    10 1
     9     4     6 1
    10     1    11 1
    11     1    12 1
    12     1    13 1
    13     3    14 1
    14     3    15 1
    15     7    16 1
@<TRIPOS>SUBSTRUCTURE
     1 8EW         1 TEMP              0 ****  ****    0 ROOT
