@<TRIPOS>MOLECULE
molecule
   45    47     1     0     0
SMALL
bcc


@<TRIPOS>ATOM
      1 C23          0.0000     0.0000     0.0000 ca         1 8EY       0.030000
      2 C24          1.3970     0.0000     0.0000 ca         1 8EY      -0.116000
      3 C25          2.0860     0.0000     1.1950 ca         1 8EY      -0.072300
      4 C26          1.3980    -0.0010     2.3950 ca         1 8EY      -0.150000
      5 C22         -0.6920    -0.0010     1.2110 ca         1 8EY      -0.195000
      6 C21          0.0100    -0.0020     2.4060 ca         1 8EY       0.152100
      7 C12         -2.0880    -0.0030     3.5250 c3         1 8EY       0.122700
      8 C11         -4.4890    -1.3330     9.5260 c3         1 8EY      -0.076800
      9 C08         -2.6530    -0.0050     4.9210 ca         1 8EY      -0.079300
     10 C07         -2.9040    -1.2170     5.5580 ca         1 8EY      -0.157000
     11 C06         -3.4090    -1.2500     6.8230 ca         1 8EY      -0.103000
     12 C09         -2.9050     1.1810     5.5430 ca         1 8EY      -0.162300
     13 C10         -3.4310     1.1860     6.8460 ca         1 8EY       0.496600
     14 N01         -3.6880     2.3360     7.4790 nb         1 8EY      -0.771000
     15 C05         -3.6810    -0.0480     7.4930 ca         1 8EY      -0.195300
     16 C04         -4.2040    -0.0420     8.8030 ca         1 8EY       0.024700
     17 C03         -4.4440     1.1590     9.3970 ca         1 8EY      -0.332300
     18 C02         -4.1810     2.3480     8.7000 ca         1 8EY       0.733200
     19 N02         -4.4300     3.5650     9.3190 nv         1 8EY      -0.993500
     20 N31         -1.2750    -0.0000    -2.2290 n1         1 8EY      -0.364800
     21 C30         -0.7190     0.0060    -1.2380 cg         1 8EY       0.243800
     22 C27          3.5920     0.0010     1.1930 c3         1 8EY       0.151100
     23 N28          4.0820     1.3850     1.1930 n7         1 8EY      -0.708200
     24 C29          5.5500     1.4250     1.1910 c3         1 8EY       0.100100
     25 O13         -0.6610    -0.0020     3.5880 os         1 8EY      -0.304900
     26 H1           2.0160    -0.1460    -0.8770 ha         1 8EY       0.147000
     27 H2           2.1020     0.3840     3.1230 ha         1 8EY       0.147000
     28 H3          -1.6510     0.4820     1.3520 ha         1 8EY       0.147000
     29 H4          -1.8170     1.0400     3.4100 h1         1 8EY       0.081700
     30 H5          -2.8730    -0.3970     2.8910 h1         1 8EY       0.081700
     31 H6          -5.5440    -1.1380     9.6830 hc         1 8EY       0.062700
     32 H7          -4.2070    -2.3150     9.1670 hc         1 8EY       0.062700
     33 H8          -4.4090    -1.0000    10.5540 hc         1 8EY       0.062700
     34 H9          -3.1940    -2.1620     5.1160 ha         1 8EY       0.133000
     35 H10         -3.5410    -2.2880     7.1050 ha         1 8EY       0.135000
     36 H11         -2.9590     1.8620     4.7020 ha         1 8EY       0.148000
     37 H12         -5.3120     1.2340    10.0410 ha         1 8EY       0.138000
     38 H13         -4.6350     3.3190    10.2670 hn         1 8EY       0.420800
     39 H14         -4.2280     4.5450     9.2970 hn         1 8EY       0.420800
     40 H15          3.9700    -0.2500     0.2090 h1         1 8EY       0.053200
     41 H16          3.7890    -0.9340     1.7040 h1         1 8EY       0.053200
     42 H17          3.8020     1.8200     2.0500 hn         1 8EY       0.335800
     43 H19          6.0670     1.6260     2.1220 h1         1 8EY       0.032700
     44 H20          6.0900     0.6500     0.6600 h1         1 8EY       0.032700
     45 H21          5.9710     2.2450     0.6230 h1         1 8EY       0.032700
@<TRIPOS>BOND
     1     8    16 1   
     2    16    17 ar  
     3    16    15 ar  
     4    17    18 ar  
     5    11    15 ar  
     6    11    10 ar  
     7    15    13 ar  
     8    18    19 1   
     9    18    14 ar  
    10    10     9 ar  
    11    20    21 3   
    12    13    14 ar  
    13    13    12 ar  
    14    21     1 1   
    15     5     1 ar  
    16     5     6 ar  
    17     9    12 ar  
    18     9     7 1   
    19    25     6 1   
    20    25     7 1   
    21     1     2 ar  
    22     6     4 ar  
    23     2     3 ar  
    24     4     3 ar  
    25     3    22 1   
    26    24    23 1   
    27    22    23 1   
    28     2    26 1   
    29     4    27 1   
    30     5    28 1   
    31     7    29 1   
    32     7    30 1   
    33     8    31 1   
    34     8    32 1   
    35     8    33 1   
    36    10    34 1   
    37    11    35 1   
    38    12    36 1   
    39    17    37 1   
    40    19    38 1   
    41    19    39 1   
    42    22    40 1   
    43    22    41 1   
    44    23    42 1   
    45    24    43 1   
    46    24    44 1   
    47    24    45 1   
@<TRIPOS>SUBSTRUCTURE
     1 8EY         1 TEMP              0 ****  ****    0 ROOT
