@<TRIPOS>MOLECULE
molecule
   23    23     1     0     0
SMALL
bcc


@<TRIPOS>ATOM
      1 C01          0.0000     0.0000     0.0000 c3         1 8EZ      -0.069100
      2 C02          1.5300     0.0000     0.0000 c3         1 8EZ      -0.047700
      3 C03          2.0390     0.0000     1.4430 c3         1 8EZ      -0.078400
      4 C04          1.5290    -1.2490     2.1640 c3         1 8EZ      -0.076400
      5 C05          2.0390    -2.4980     1.4440 c3         1 8EZ      -0.083400
      6 C06          1.5290    -2.4990     0.0010 c3         1 8EZ      -0.058400
      7 C07          2.0400    -1.2500    -0.7210 c3         1 8EZ      -0.164700
      8 C08          1.5370    -1.2500    -2.1420 c          1 8EZ       0.894600
      9 O09          0.8430    -0.3440    -2.5370 o          1 8EZ      -0.853300
     10 O10          1.8620    -2.2570    -2.9670 o          1 8EZ      -0.853300
     11 H013        -0.3610     0.7480    -0.6950 hc         1 8EZ       0.026700
     12 H011        -0.3610    -0.9760    -0.3010 hc         1 8EZ       0.026700
     13 H012        -0.3610     0.2280     0.9960 hc         1 8EZ       0.026700
     14 H021         1.8950     0.8830    -0.5100 hc         1 8EZ       0.050700
     15 H031         1.6750     0.8840     1.9530 hc         1 8EZ       0.020200
     16 H032         3.1230    -0.0020     1.4420 hc         1 8EZ       0.020200
     17 H042         1.8920    -1.2490     3.1850 hc         1 8EZ       0.023200
     18 H041         0.4460    -1.2490     2.1610 hc         1 8EZ       0.023200
     19 H052         3.1220    -2.4960     1.4430 hc         1 8EZ       0.020700
     20 H051         1.6750    -3.3810     1.9540 hc         1 8EZ       0.020700
     21 H061         1.8940    -3.3830    -0.5090 hc         1 8EZ       0.047200
     22 H062         0.4460    -2.4970     0.0020 hc         1 8EZ       0.047200
     23 H071         3.1230    -1.2500    -0.7170 hc         1 8EZ       0.037700
@<TRIPOS>BOND
     1     1     2 1   
     2     2     3 1   
     3     2     7 1   
     4     3     4 1   
     5     7     6 1   
     6     7     8 1   
     7     4     5 1   
     8     6     5 1   
     9     8     9 1   
    10     8    10 1   
    11     1    11 1   
    12     1    12 1   
    13     1    13 1   
    14     2    14 1   
    15     3    15 1   
    16     3    16 1   
    17     4    17 1   
    18     4    18 1   
    19     5    19 1   
    20     5    20 1   
    21     6    21 1   
    22     6    22 1   
    23     7    23 1   
@<TRIPOS>SUBSTRUCTURE
     1 8EZ         1 TEMP              0 ****  ****    0 ROOT
