@<TRIPOS>MOLECULE
molecule
   53    56     1     0     0
SMALL
bcc


@<TRIPOS>ATOM
      1 C13          0.0000     0.0000     0.0000 c3         1 8F0      -0.085100
      2 C17          2.3870    -3.5180     2.5750 cx         1 8F0      -0.146900
      3 C20          6.5410     2.6110     1.4920 c3         1 8F0      -0.111100
      4 C21          9.0210     0.8390     2.9580 ca         1 8F0      -0.118000
      5 C22          9.8710     0.8180     4.0490 ca         1 8F0      -0.123500
      6 C24          8.0440     1.4010     5.4820 ca         1 8F0      -0.123500
      7 C01          5.0670     0.0000     0.0000 ca         1 8F0      -0.191000
      8 C02          4.6560     0.0000     1.3270 ca         1 8F0       0.190600
      9 C03          3.4380    -0.5650     1.6800 ca         1 8F0      -0.171000
     10 C04          2.6290    -1.1290     0.7050 ca         1 8F0       0.098600
     11 C05          3.0450    -1.1230    -0.6270 ca         1 8F0      -0.020400
     12 C06          4.2600    -0.5560    -0.9740 ca         1 8F0      -0.113000
     13 C08          0.3820    -1.4810     0.0280 c3         1 8F0       0.112500
     14 C09          0.9110    -1.8860    -1.3230 c          1 8F0       0.672500
     15 C14          1.5570    -3.1320     1.3490 cx         1 8F0       0.099500
     16 C16          6.7580     1.1650     1.9400 c3         1 8F0       0.288800
     17 C18          2.9480    -3.7460     1.1700 cx         1 8F0      -0.146900
     18 C19          7.6840     1.1420     3.1300 ca         1 8F0      -0.100300
     19 C23          9.3810     1.0990     5.3110 ca         1 8F0      -0.079300
     20 C25          7.1940     1.4220     4.3910 ca         1 8F0      -0.118000
     21 N07          1.4040    -1.7010     1.0550 nh         1 8F0      -0.568000
     22 N10          2.2170    -1.6890    -1.6110 n          1 8F0      -0.373000
     23 N15          5.4730     0.5690     2.3110 nu         1 8F0      -0.824600
     24 O12          0.1730    -2.3860    -2.1450 o          1 8F0      -0.632500
     25 H1          -0.0410     0.3820     1.0130 hc         1 8F0       0.050700
     26 H2          -0.9700     0.1140    -0.4680 hc         1 8F0       0.050700
     27 H3           0.7410     0.5530    -0.5650 hc         1 8F0       0.050700
     28 H4           2.0610    -4.4090     3.0980 hc         1 8F0       0.080200
     29 H5           2.8220    -2.6920     3.1240 hc         1 8F0       0.080200
     30 H6           7.3950     3.2110     1.7810 hc         1 8F0       0.044700
     31 H7           6.4250     2.6420     0.4150 hc         1 8F0       0.044700
     32 H8           5.6480     3.0040     1.9620 hc         1 8F0       0.044700
     33 H9           9.4040     0.6190     1.9690 ha         1 8F0       0.130000
     34 H10         10.9190     0.5810     3.9150 ha         1 8F0       0.132500
     35 H11          7.6600     1.6210     6.4710 ha         1 8F0       0.132500
     36 H12         10.1830     0.1400     7.0350 hc         1 8F0       0.044367
     37 H13         10.0700     1.9010     7.1600 hc         1 8F0       0.044367
     38 H14         11.3320     1.1650     6.1630 hc         1 8F0       0.044367
     39 H15          6.0180     0.4420    -0.2720 ha         1 8F0       0.137000
     40 H16          3.1190    -0.5640     2.7150 ha         1 8F0       0.146000
     41 H17          4.5810    -0.5560    -2.0090 ha         1 8F0       0.136000
     42 H18         -0.4920    -2.0770     0.2620 h1         1 8F0       0.097700
     43 H22          0.7350    -3.8020     1.1290 h1         1 8F0       0.098700
     44 H23          7.1980     0.5980     1.1290 h1         1 8F0       0.062700
     45 H24          2.9650    -4.7760     0.8350 hc         1 8F0       0.080200
     46 H25          3.7260    -3.0580     0.8610 hc         1 8F0       0.080200
     47 H26          6.1460     1.6590     4.5250 ha         1 8F0       0.130000
     48 H27          5.1830     0.5600     3.2690 hn         1 8F0       0.442800
     49 C11          2.7570    -2.0560    -2.9230 c3         1 8F0       0.095300
     50 C26         10.3070     1.0740     6.5010 c3         1 8F0      -0.048800
     51 H19          3.7330    -2.5100    -2.7980 h1         1 8F0       0.049700
     52 H20          2.0900    -2.7610    -3.4040 h1         1 8F0       0.049700
     53 H21          2.8480    -1.1680    -3.5370 h1         1 8F0       0.049700
@<TRIPOS>BOND
     1    49    22 1   
     2    12     7 ar  
     3    12    11 ar  
     4    22    11 1   
     5    22    14 1   
     6     7     8 ar  
     7    24    14 2   
     8    11    10 ar  
     9    14    13 1   
    10    13     1 1   
    11    13    21 1   
    12     8    23 1   
    13     8     9 ar  
    14    10     9 ar  
    15    10    21 1   
    16    23    16 1   
    17    21    15 1   
    18    16     3 1   
    19    16    18 1   
    20    15     2 1   
    21    15    17 1   
    22     4    18 ar  
    23     4     5 ar  
    24    18    20 ar  
    25     2    17 1   
    26     5    19 ar  
    27    20     6 ar  
    28    19     6 ar  
    29    19    50 1   
    30     1    25 1   
    31     1    26 1   
    32     1    27 1   
    33     2    28 1   
    34     2    29 1   
    35     3    30 1   
    36     3    31 1   
    37     3    32 1   
    38     4    33 1   
    39     5    34 1   
    40     6    35 1   
    41    50    36 1   
    42    50    37 1   
    43    50    38 1   
    44     7    39 1   
    45     9    40 1   
    46    12    41 1   
    47    13    42 1   
    48    49    51 1   
    49    49    52 1   
    50    49    53 1   
    51    15    43 1   
    52    16    44 1   
    53    17    45 1   
    54    17    46 1   
    55    20    47 1   
    56    23    48 1   
@<TRIPOS>SUBSTRUCTURE
     1 8F0         1 TEMP              0 ****  ****    0 ROOT
