@<TRIPOS>MOLECULE
8F0
   53    56     1     0     0
SMALL
bcc


@<TRIPOS>ATOM
      1 C13          0.0000     0.0000     0.0000 c3         1 8F0       0.008900
      2 C17          2.3870    -3.5180     2.5750 cx         1 8F0      -0.099900
      3 C20          6.5410     2.6110     1.4920 c3         1 8F0      -0.022100
      4 C21          9.0210     0.8390     2.9580 ca         1 8F0      -0.090500
      5 C22          9.8710     0.8180     4.0490 ca         1 8F0      -0.096500
      6 C24          8.0440     1.4010     5.4820 ca         1 8F0      -0.096500
      7 C01          5.0670     0.0000     0.0000 ca         1 8F0      -0.177000
      8 C02          4.6560     0.0000     1.3270 ca         1 8F0       0.061600
      9 C03          3.4380    -0.5650     1.6800 ca         1 8F0      -0.152000
     10 C04          2.6290    -1.1290     0.7050 ca         1 8F0       0.030600
     11 C05          3.0450    -1.1230    -0.6270 ca         1 8F0      -0.157400
     12 C06          4.2600    -0.5560    -0.9740 ca         1 8F0      -0.078000
     13 C08          0.3820    -1.4810     0.0280 c3         1 8F0       0.054500
     14 C09          0.9110    -1.8860    -1.3230 c          1 8F0       0.585500
     15 C14          1.5570    -3.1320     1.3490 cx         1 8F0       0.047500
     16 C16          6.7580     1.1650     1.9400 c3         1 8F0       0.195800
     17 C18          2.9480    -3.7460     1.1700 cx         1 8F0      -0.099900
     18 C19          7.6840     1.1420     3.1300 ca         1 8F0      -0.111300
     19 C23          9.3810     1.0990     5.3110 ca         1 8F0      -0.085300
     20 C25          7.1940     1.4220     4.3910 ca         1 8F0      -0.090500
     21 N07          1.4040    -1.7010     1.0550 nh         1 8F0      -0.330000
     22 N10          2.2170    -1.6890    -1.6110 n          1 8F0       0.020000
     23 N15          5.4730     0.5690     2.3110 nu         1 8F0      -0.431600
     24 O12          0.1730    -2.3860    -2.1450 o          1 8F0      -0.668500
     25 H1          -0.0410     0.3820     1.0130 hc         1 8F0       0.015033
     26 H2          -0.9700     0.1140    -0.4680 hc         1 8F0       0.015033
     27 H3           0.7410     0.5530    -0.5650 hc         1 8F0       0.015033
     28 H4           2.0610    -4.4090     3.0980 hc         1 8F0       0.054200
     29 H5           2.8220    -2.6920     3.1240 hc         1 8F0       0.054200
     30 H6           7.3950     3.2110     1.7810 hc         1 8F0       0.013367
     31 H7           6.4250     2.6420     0.4150 hc         1 8F0       0.013367
     32 H8           5.6480     3.0040     1.9620 hc         1 8F0       0.013367
     33 H9           9.4040     0.6190     1.9690 ha         1 8F0       0.106500
     34 H10         10.9190     0.5810     3.9150 ha         1 8F0       0.107500
     35 H11          7.6600     1.6210     6.4710 ha         1 8F0       0.107500
     36 H12         10.1830     0.1400     7.0350 hc         1 8F0       0.008700
     37 H13         10.0700     1.9010     7.1600 hc         1 8F0       0.008700
     38 H14         11.3320     1.1650     6.1630 hc         1 8F0       0.008700
     39 H15          6.0180     0.4420    -0.2720 ha         1 8F0       0.121000
     40 H16          3.1190    -0.5640     2.7150 ha         1 8F0       0.124000
     41 H17          4.5810    -0.5560    -2.0090 ha         1 8F0       0.112000
     42 H18         -0.4920    -2.0770     0.2620 h1         1 8F0       0.064700
     43 H22          0.7350    -3.8020     1.1290 h1         1 8F0       0.073700
     44 H23          7.1980     0.5980     1.1290 h1         1 8F0       0.041700
     45 H24          2.9650    -4.7760     0.8350 hc         1 8F0       0.054200
     46 H25          3.7260    -3.0580     0.8610 hc         1 8F0       0.054200
     47 H26          6.1460     1.6590     4.5250 ha         1 8F0       0.106500
     48 H27          5.1830     0.5600     3.2690 hn         1 8F0       0.302800
     49 C11          2.7570    -2.0560    -2.9230 c3         1 8F0       0.062300
     50 C26         10.3070     1.0740     6.5010 c3         1 8F0       0.063200
     51 H19          3.7330    -2.5100    -2.7980 h1         1 8F0       0.020033
     52 H20          2.0900    -2.7610    -3.4040 h1         1 8F0       0.020033
     53 H21          2.8480    -1.1680    -3.5370 h1         1 8F0       0.020033
@<TRIPOS>BOND
     1     1    13 1   
     2     1    25 1   
     3     1    26 1   
     4     1    27 1   
     5     2    15 1   
     6     2    17 1   
     7     2    28 1   
     8     2    29 1   
     9     3    16 1   
    10     3    30 1   
    11     3    31 1   
    12     3    32 1   
    13     4     5 ar  
    14     4    18 ar  
    15     4    33 1   
    16     5    19 ar  
    17     5    34 1   
    18     6    19 ar  
    19     6    20 ar  
    20     6    35 1   
    21     7     8 ar  
    22     7    12 ar  
    23     7    39 1   
    24     8     9 ar  
    25     8    23 1   
    26     9    10 ar  
    27     9    40 1   
    28    10    11 ar  
    29    10    21 1   
    30    11    12 ar  
    31    11    22 1   
    32    12    41 1   
    33    13    14 1   
    34    13    21 1   
    35    13    42 1   
    36    14    22 1   
    37    14    24 2   
    38    15    17 1   
    39    15    21 1   
    40    15    43 1   
    41    16    18 1   
    42    16    23 1   
    43    16    44 1   
    44    17    45 1   
    45    17    46 1   
    46    18    20 ar  
    47    19    50 1   
    48    20    47 1   
    49    22    49 1   
    50    23    48 1   
    51    36    50 1   
    52    37    50 1   
    53    38    50 1   
    54    49    51 1   
    55    49    52 1   
    56    49    53 1   
@<TRIPOS>SUBSTRUCTURE
     1 8F0         1 TEMP              0 ****  ****    0 ROOT
