@<TRIPOS>MOLECULE
molecule
   48    50     1     0     0
SMALL
bcc


@<TRIPOS>ATOM
      1 N28         -1.2790    -0.0150    -2.2270 n1         1 8F1      -0.362800
      2 C27         -0.7190     0.0000    -1.2390 cg         1 8F1       0.240800
      3 C23          0.0000     0.0000     0.0000 ca         1 8F1       0.019000
      4 C24          1.3960     0.0000     0.0000 ca         1 8F1      -0.129000
      5 C25          2.0850     0.0000     1.1960 ca         1 8F1      -0.037300
      6 C31          3.5930     0.0010     1.1940 c3         1 8F1      -0.065100
      7 C32          4.1020     1.4430     1.1940 c3         1 8F1       0.110800
      8 N33          5.5710     1.4440     1.1910 n7         1 8F1      -0.813200
      9 C34          6.0970     2.8150     1.1910 c3         1 8F1       0.133100
     10 C22         -0.6930     0.0040     1.2120 ca         1 8F1      -0.204000
     11 C21          0.0090     0.0050     2.4060 ca         1 8F1       0.159100
     12 C26          1.3980    -0.0000     2.3950 ca         1 8F1      -0.139000
     13 O13         -0.6610     0.0100     3.5880 os         1 8F1      -0.318900
     14 C12         -2.0890     0.0150     3.5240 c3         1 8F1       0.180700
     15 C08         -2.6540     0.0200     4.9210 ca         1 8F1      -0.049300
     16 C09         -2.9010     1.2080     5.5390 ca         1 8F1      -0.151300
     17 C07         -2.9210    -1.1890     5.5570 ca         1 8F1      -0.153000
     18 C06         -3.4380    -1.2160     6.8170 ca         1 8F1      -0.113000
     19 C05         -3.7040    -0.0120     7.4840 ca         1 8F1      -0.183300
     20 C04         -4.2390    -0.0000     8.7890 ca         1 8F1      -0.012300
     21 C11         -4.5400    -1.2870     9.5120 c3         1 8F1      -0.059800
     22 C03         -4.4740     1.2040     9.3790 ca         1 8F1      -0.316300
     23 C02         -4.1840     2.3900     8.6890 ca         1 8F1       0.691200
     24 N02         -4.4290     3.6080     9.3030 nv         1 8F1      -1.009500
     25 N01         -3.6860     2.3730     7.4700 nb         1 8F1      -0.780000
     26 C10         -3.4280     1.2190     6.8420 ca         1 8F1       0.486600
     27 H1           1.9950    -0.0930    -0.8980 ha         1 8F1       0.145000
     28 H2           4.0510    -0.4140     2.0840 hc         1 8F1       0.078200
     29 H3           4.0920    -0.1480     0.2440 hc         1 8F1       0.078200
     30 H4           3.9760     2.1290     0.3650 h1         1 8F1       0.049700
     31 H5           3.6880     1.6300     2.1770 h1         1 8F1       0.049700
     32 H6           5.8970     1.1250     2.0820 hn         1 8F1       0.329800
     33 H8           5.7070     3.4620     0.4140 h1         1 8F1       0.039700
     34 H9           5.6880     2.9970     2.1780 h1         1 8F1       0.039700
     35 H10          7.1690     2.7070     1.3030 h1         1 8F1       0.039700
     36 H11         -1.7270    -0.2920     1.0850 ha         1 8F1       0.149000
     37 H12          2.0030     0.0420     3.2920 ha         1 8F1       0.150000
     38 H13         -2.2880     0.7820     2.7850 h1         1 8F1       0.032200
     39 H14         -2.4430    -0.7870     2.8880 h1         1 8F1       0.032200
     40 H15         -2.9070     2.0240     4.8270 ha         1 8F1       0.149000
     41 H16         -3.1630    -2.1320     5.0810 ha         1 8F1       0.130000
     42 H17         -3.7100    -2.2600     6.9180 ha         1 8F1       0.140000
     43 H18         -5.5540    -1.2470     9.1340 hc         1 8F1       0.067700
     44 H19         -3.9910    -2.0520     8.9760 hc         1 8F1       0.067700
     45 H20         -4.4280    -1.0190    10.5560 hc         1 8F1       0.067700
     46 H21         -5.1390     1.3490    10.2220 ha         1 8F1       0.133000
     47 H22         -4.9180     3.5980    10.1760 hn         1 8F1       0.454300
     48 H23         -4.1600     4.3710     8.7140 hn         1 8F1       0.454300
@<TRIPOS>BOND
     1    21    20 1   
     2    20    22 ar  
     3    20    19 ar  
     4    22    23 ar  
     5    18    19 ar  
     6    18    17 ar  
     7    19    26 ar  
     8    23    24 1   
     9    23    25 ar  
    10     1     2 3   
    11    17    15 ar  
    12    26    25 ar  
    13    26    16 ar  
    14     2     3 1   
    15    10     3 ar  
    16    10    11 ar  
    17    15    16 ar  
    18    15    14 1   
    19    13    11 1   
    20    13    14 1   
    21     3     4 ar  
    22    11    12 ar  
    23     4     5 ar  
    24    12     5 ar  
    25     5     6 1   
    26     7     6 1   
    27     7     8 1   
    28     8     9 1   
    29     4    27 1   
    30     6    28 1   
    31     6    29 1   
    32     7    30 1   
    33     7    31 1   
    34     8    32 1   
    35     9    33 1   
    36     9    34 1   
    37     9    35 1   
    38    10    36 1   
    39    12    37 1   
    40    14    38 1   
    41    14    39 1   
    42    16    40 1   
    43    17    41 1   
    44    18    42 1   
    45    21    43 1   
    46    21    44 1   
    47    21    45 1   
    48    22    46 1   
    49    24    47 1   
    50    24    48 1   
@<TRIPOS>SUBSTRUCTURE
     1 8F1         1 TEMP              0 ****  ****    0 ROOT
