@<TRIPOS>MOLECULE
8F1
   48    50     1     0     0
SMALL
bcc


@<TRIPOS>ATOM
      1 N28         -1.2790    -0.0150    -2.2270 n1         1 8F1      -0.381800
      2 C27         -0.7190     0.0000    -1.2390 cg         1 8F1       0.231800
      3 C23          0.0000     0.0000     0.0000 ca         1 8F1       0.071000
      4 C24          1.3960     0.0000     0.0000 ca         1 8F1      -0.117000
      5 C25          2.0850     0.0000     1.1960 ca         1 8F1      -0.033300
      6 C31          3.5930     0.0010     1.1940 c3         1 8F1      -0.006100
      7 C32          4.1020     1.4430     1.1940 c3         1 8F1       0.093800
      8 N33          5.5710     1.4440     1.1910 n7         1 8F1      -0.606200
      9 C34          6.0970     2.8150     1.1910 c3         1 8F1       0.178100
     10 C22         -0.6930     0.0040     1.2120 ca         1 8F1      -0.203000
     11 C21          0.0090     0.0050     2.4060 ca         1 8F1       0.176100
     12 C26          1.3980    -0.0000     2.3950 ca         1 8F1      -0.127000
     13 O13         -0.6610     0.0100     3.5880 os         1 8F1      -0.295900
     14 C12         -2.0890     0.0150     3.5240 c3         1 8F1       0.253700
     15 C08         -2.6540     0.0200     4.9210 ca         1 8F1      -0.063300
     16 C09         -2.9010     1.2080     5.5390 ca         1 8F1      -0.134300
     17 C07         -2.9210    -1.1890     5.5570 ca         1 8F1      -0.135000
     18 C06         -3.4380    -1.2160     6.8170 ca         1 8F1      -0.088000
     19 C05         -3.7040    -0.0120     7.4840 ca         1 8F1      -0.177300
     20 C04         -4.2390    -0.0000     8.7890 ca         1 8F1      -0.012300
     21 C11         -4.5400    -1.2870     9.5120 c3         1 8F1       0.033200
     22 C03         -4.4740     1.2040     9.3790 ca         1 8F1      -0.294300
     23 C02         -4.1840     2.3900     8.6890 ca         1 8F1       0.499200
     24 N02         -4.4290     3.6080     9.3030 nv         1 8F1      -0.539500
     25 N01         -3.6860     2.3730     7.4700 nb         1 8F1      -0.675000
     26 C10         -3.4280     1.2190     6.8420 ca         1 8F1       0.447600
     27 H1           1.9950    -0.0930    -0.8980 ha         1 8F1       0.121000
     28 H2           4.0510    -0.4140     2.0840 hc         1 8F1       0.046700
     29 H3           4.0920    -0.1480     0.2440 hc         1 8F1       0.046700
     30 H4           3.9760     2.1290     0.3650 h1         1 8F1       0.027200
     31 H5           3.6880     1.6300     2.1770 h1         1 8F1       0.027200
     32 H6           5.8970     1.1250     2.0820 hn         1 8F1       0.242800
     33 H8           5.7070     3.4620     0.4140 h1         1 8F1       0.005367
     34 H9           5.6880     2.9970     2.1780 h1         1 8F1       0.005367
     35 H10          7.1690     2.7070     1.3030 h1         1 8F1       0.005367
     36 H11         -1.7270    -0.2920     1.0850 ha         1 8F1       0.133000
     37 H12          2.0030     0.0420     3.2920 ha         1 8F1       0.123000
     38 H13         -2.2880     0.7820     2.7850 h1         1 8F1      -0.004800
     39 H14         -2.4430    -0.7870     2.8880 h1         1 8F1      -0.004800
     40 H15         -2.9070     2.0240     4.8270 ha         1 8F1       0.119000
     41 H16         -3.1630    -2.1320     5.0810 ha         1 8F1       0.107000
     42 H17         -3.7100    -2.2600     6.9180 ha         1 8F1       0.117000
     43 H18         -5.5540    -1.2470     9.1340 hc         1 8F1       0.033700
     44 H19         -3.9910    -2.0520     8.9760 hc         1 8F1       0.033700
     45 H20         -4.4280    -1.0190    10.5560 hc         1 8F1       0.033700
     46 H21         -5.1390     1.3490    10.2220 ha         1 8F1       0.116000
     47 H22         -4.9180     3.5980    10.1760 hn         1 8F1       0.286800
     48 H23         -4.1600     4.3710     8.7140 hn         1 8F1       0.286800
@<TRIPOS>BOND
     1     1     2 3   
     2     2     3 1   
     3     3     4 ar  
     4     3    10 ar  
     5     4     5 ar  
     6     4    27 1   
     7     5     6 1   
     8     5    12 ar  
     9     6     7 1   
    10     6    28 1   
    11     6    29 1   
    12     7     8 1   
    13     7    30 1   
    14     7    31 1   
    15     8     9 1   
    16     8    32 1   
    17     9    33 1   
    18     9    34 1   
    19     9    35 1   
    20    10    11 ar  
    21    10    36 1   
    22    11    12 ar  
    23    11    13 1   
    24    12    37 1   
    25    13    14 1   
    26    14    15 1   
    27    14    38 1   
    28    14    39 1   
    29    15    16 ar  
    30    15    17 ar  
    31    16    26 ar  
    32    16    40 1   
    33    17    18 ar  
    34    17    41 1   
    35    18    19 ar  
    36    18    42 1   
    37    19    20 ar  
    38    19    26 ar  
    39    20    21 1   
    40    20    22 ar  
    41    21    43 1   
    42    21    44 1   
    43    21    45 1   
    44    22    23 ar  
    45    22    46 1   
    46    23    24 1   
    47    23    25 ar  
    48    24    47 1   
    49    24    48 1   
    50    25    26 ar  
@<TRIPOS>SUBSTRUCTURE
     1 8F1         1 TEMP              0 ****  ****    0 ROOT
