@<TRIPOS>MOLECULE
molecule
   51    54     1     0     0
SMALL
bcc


@<TRIPOS>ATOM
      1 C12          0.0000     0.0000     0.0000 ca         1 8F2      -0.107000
      2 C11          1.3800     0.0000     0.0000 ca         1 8F2      -0.037000
      3 C10          2.0740     0.0000     1.1970 ca         1 8F2      -0.334500
      4 S1           3.8360    -0.0010     1.1880 sy         1 8F2       1.227200
      5 O1           4.2430    -0.5450     2.4360 o          1 8F2      -0.517300
      6 O2           4.2320    -0.5460    -0.0630 o          1 8F2      -0.517300
      7 N2           4.3280     1.5800     1.1850 nz         1 8F2      -0.806500
      8 C15          1.3910     0.0010     2.4000 ca         1 8F2      -0.037000
      9 C14          0.0120     0.0020     2.4130 ca         1 8F2      -0.107000
     10 C13         -0.6940     0.0010     1.2100 ca         1 8F2      -0.030600
     11 C16         -2.1730     0.0020     1.2180 c          1 8F2       0.651700
     12 O3          -2.7850     0.6190     0.3670 o          1 8F2      -0.547100
     13 N1          -2.8430    -0.6810     2.1670 n          1 8F2      -0.471800
     14 C8          -2.1320    -1.4290     3.2180 c3         1 8F2       0.070000
     15 C9          -2.4640    -0.7810     4.5610 c3         1 8F2      -0.053100
     16 C5          -3.9470    -0.5490     4.6930 ca         1 8F2      -0.079300
     17 C4          -4.4590    -0.3770     5.9740 ca         1 8F2      -0.156000
     18 C3          -5.8080    -0.1510     6.1680 ca         1 8F2       0.107100
     19 O5          -6.3000     0.0150     7.4250 oh         1 8F2      -0.502100
     20 C2          -6.6620    -0.0920     5.0700 ca         1 8F2       0.105100
     21 O4          -7.9920     0.1350     5.2480 oh         1 8F2      -0.501100
     22 C1          -6.1500    -0.2670     3.7980 ca         1 8F2      -0.136000
     23 C6          -4.7950    -0.5000     3.6090 ca         1 8F2      -0.092300
     24 C7          -4.3090    -0.7040     2.1990 c3         1 8F2       0.223300
     25 C18         -4.8470     0.3960     1.3200 ca         1 8F2      -0.079300
     26 C17         -5.6050     0.0830     0.2080 ca         1 8F2      -0.106500
     27 C22         -6.0990     1.0920    -0.5980 ca         1 8F2      -0.120000
     28 C21         -5.8340     2.4130    -0.2910 ca         1 8F2      -0.116000
     29 C20         -5.0770     2.7260     0.8210 ca         1 8F2      -0.120000
     30 C19         -4.5880     1.7170     1.6310 ca         1 8F2      -0.106500
     31 H1          -0.5430    -0.0000    -0.9370 ha         1 8F2       0.184000
     32 H2           1.9210    -0.0010    -0.9390 ha         1 8F2       0.158000
     33 H3           3.9820     2.0390     2.0050 hn         1 8F2       0.492800
     34 H4           5.3280     1.6190     1.1790 hn         1 8F2       0.492800
     35 H5           1.9410     0.0010     3.3340 ha         1 8F2       0.158000
     36 H6          -0.5220     0.0030     3.3560 ha         1 8F2       0.184000
     37 H7          -2.4830    -2.4540     3.2220 h1         1 8F2       0.068200
     38 H8          -1.0650    -1.3570     3.0440 h1         1 8F2       0.068200
     39 H9          -2.1490    -1.4500     5.3530 hc         1 8F2       0.058200
     40 H10         -1.9600     0.1760     4.6150 hc         1 8F2       0.058200
     41 H11         -3.7940    -0.4220     6.8280 ha         1 8F2       0.143000
     42 H12         -6.0350     0.8570     7.7570 ho         1 8F2       0.427000
     43 H13         -8.4710    -0.6600     5.0840 ho         1 8F2       0.429000
     44 H14         -6.8120    -0.2220     2.9410 ha         1 8F2       0.157000
     45 H15         -4.6590    -1.6630     1.8360 h1         1 8F2       0.075700
     46 H16         -5.8130    -0.9530    -0.0330 ha         1 8F2       0.125000
     47 H17         -6.6930     0.8470    -1.4700 ha         1 8F2       0.132000
     48 H18         -6.2200     3.2040    -0.9240 ha         1 8F2       0.133000
     49 H19         -4.8710     3.7620     1.0630 ha         1 8F2       0.132000
     50 H20         -3.9940     1.9620     2.5030 ha         1 8F2       0.125000
     51 H23          3.9590     2.0430     0.3780 hn         1 8F2       0.492800
@<TRIPOS>BOND
     1    19    18 1   
     2    17    18 ar  
     3    17    16 ar  
     4    18    20 ar  
     5    15    16 1   
     6    15    14 1   
     7    16    23 ar  
     8    14    13 1   
     9    20    21 1   
    10    20    22 ar  
    11    23    22 ar  
    12    23    24 1   
    13    13    11 1   
    14    13    24 1   
    15    12    11 2   
    16    11    10 1   
    17    24    25 1   
    18    30    25 ar  
    19    30    29 ar  
    20     1    10 ar  
    21     1     2 ar  
    22    25    26 ar  
    23    29    28 ar  
    24    10     9 ar  
    25     2     3 ar  
    26     9     8 ar  
    27    26    27 ar  
    28    28    27 ar  
    29     3     8 ar  
    30     3     4 1   
    31     7     4 1   
    32     5     4 2   
    33     4     6 2   
    34     1    31 1   
    35     2    32 1   
    36     7    33 1   
    37     7    34 1   
    38     8    35 1   
    39     9    36 1   
    40    14    37 1   
    41    14    38 1   
    42    15    39 1   
    43    15    40 1   
    44    17    41 1   
    45    19    42 1   
    46    21    43 1   
    47    22    44 1   
    48    24    45 1   
    49    26    46 1   
    50    27    47 1   
    51    28    48 1   
    52    29    49 1   
    53    30    50 1   
    54    51     7 1   
@<TRIPOS>SUBSTRUCTURE
     1 8F2         1 TEMP              0 ****  ****    0 ROOT
