@<TRIPOS>MOLECULE
8F2
   51    54     1     0     0
SMALL
bcc


@<TRIPOS>ATOM
      1 C12          0.0000     0.0000     0.0000 ca         1 8F2      -0.093000
      2 C11          1.3800     0.0000     0.0000 ca         1 8F2       0.006000
      3 C10          2.0740     0.0000     1.1970 ca         1 8F2      -0.222500
      4 S1           3.8360    -0.0010     1.1880 sy         1 8F2       0.935200
      5 O1           4.2430    -0.5450     2.4360 o          1 8F2      -0.495800
      6 O2           4.2320    -0.5460    -0.0630 o          1 8F2      -0.495800
      7 N2           4.3280     1.5800     1.1850 nz         1 8F2      -0.130500
      8 C15          1.3910     0.0010     2.4000 ca         1 8F2       0.006000
      9 C14          0.0120     0.0020     2.4130 ca         1 8F2      -0.093000
     10 C13         -0.6940     0.0010     1.2100 ca         1 8F2      -0.029600
     11 C16         -2.1730     0.0020     1.2180 c          1 8F2       0.573700
     12 O3          -2.7850     0.6190     0.3670 o          1 8F2      -0.593100
     13 N1          -2.8430    -0.6810     2.1670 n          1 8F2      -0.122800
     14 C8          -2.1320    -1.4290     3.2180 c3         1 8F2      -0.009000
     15 C9          -2.4640    -0.7810     4.5610 c3         1 8F2       0.023900
     16 C5          -3.9470    -0.5490     4.6930 ca         1 8F2      -0.091300
     17 C4          -4.4590    -0.3770     5.9740 ca         1 8F2      -0.136000
     18 C3          -5.8080    -0.1510     6.1680 ca         1 8F2       0.117100
     19 O5          -6.3000     0.0150     7.4250 oh         1 8F2      -0.481100
     20 C2          -6.6620    -0.0920     5.0700 ca         1 8F2       0.115100
     21 O4          -7.9920     0.1350     5.2480 oh         1 8F2      -0.481100
     22 C1          -6.1500    -0.2670     3.7980 ca         1 8F2      -0.117000
     23 C6          -4.7950    -0.5000     3.6090 ca         1 8F2      -0.101300
     24 C7          -4.3090    -0.7040     2.1990 c3         1 8F2       0.164300
     25 C18         -4.8470     0.3960     1.3200 ca         1 8F2      -0.087300
     26 C17         -5.6050     0.0830     0.2080 ca         1 8F2      -0.082500
     27 C22         -6.0990     1.0920    -0.5980 ca         1 8F2      -0.091000
     28 C21         -5.8340     2.4130    -0.2910 ca         1 8F2      -0.089000
     29 C20         -5.0770     2.7260     0.8210 ca         1 8F2      -0.091000
     30 C19         -4.5880     1.7170     1.6310 ca         1 8F2      -0.082500
     31 H1          -0.5430    -0.0000    -0.9370 ha         1 8F2       0.156000
     32 H2           1.9210    -0.0010    -0.9390 ha         1 8F2       0.127000
     33 H3           3.9820     2.0390     2.0050 hn         1 8F2       0.313800
     34 H4           5.3280     1.6190     1.1790 hn         1 8F2       0.313800
     35 H5           1.9410     0.0010     3.3340 ha         1 8F2       0.127000
     36 H6          -0.5220     0.0030     3.3560 ha         1 8F2       0.156000
     37 H7          -2.4830    -2.4540     3.2220 h1         1 8F2       0.047200
     38 H8          -1.0650    -1.3570     3.0440 h1         1 8F2       0.047200
     39 H9          -2.1490    -1.4500     5.3530 hc         1 8F2       0.026700
     40 H10         -1.9600     0.1760     4.6150 hc         1 8F2       0.026700
     41 H11         -3.7940    -0.4220     6.8280 ha         1 8F2       0.117000
     42 H12         -6.0350     0.8570     7.7570 ho         1 8F2       0.408000
     43 H13         -8.4710    -0.6600     5.0840 ho         1 8F2       0.411000
     44 H14         -6.8120    -0.2220     2.9410 ha         1 8F2       0.131000
     45 H15         -4.6590    -1.6630     1.8360 h1         1 8F2       0.042700
     46 H16         -5.8130    -0.9530    -0.0330 ha         1 8F2       0.099500
     47 H17         -6.6930     0.8470    -1.4700 ha         1 8F2       0.103500
     48 H18         -6.2200     3.2040    -0.9240 ha         1 8F2       0.105000
     49 H19         -4.8710     3.7620     1.0630 ha         1 8F2       0.103500
     50 H20         -3.9940     1.9620     2.5030 ha         1 8F2       0.099500
     51 H23          3.9590     2.0430     0.3780 hn         1 8F2       0.313800
@<TRIPOS>BOND
     1     1     2 ar  
     2     1    10 ar  
     3     1    31 1   
     4     2     3 ar  
     5     2    32 1   
     6     3     4 1   
     7     3     8 ar  
     8     4     5 2   
     9     4     6 2   
    10     4     7 1   
    11     7    33 1   
    12     7    34 1   
    13     7    51 1   
    14     8     9 ar  
    15     8    35 1   
    16     9    10 ar  
    17     9    36 1   
    18    10    11 1   
    19    11    12 2   
    20    11    13 1   
    21    13    14 1   
    22    13    24 1   
    23    14    15 1   
    24    14    37 1   
    25    14    38 1   
    26    15    16 1   
    27    15    39 1   
    28    15    40 1   
    29    16    17 ar  
    30    16    23 ar  
    31    17    18 ar  
    32    17    41 1   
    33    18    19 1   
    34    18    20 ar  
    35    19    42 1   
    36    20    21 1   
    37    20    22 ar  
    38    21    43 1   
    39    22    23 ar  
    40    22    44 1   
    41    23    24 1   
    42    24    25 1   
    43    24    45 1   
    44    25    26 ar  
    45    25    30 ar  
    46    26    27 ar  
    47    26    46 1   
    48    27    28 ar  
    49    27    47 1   
    50    28    29 ar  
    51    28    48 1   
    52    29    30 ar  
    53    29    49 1   
    54    30    50 1   
@<TRIPOS>SUBSTRUCTURE
     1 8F2         1 TEMP              0 ****  ****    0 ROOT
