@<TRIPOS>MOLECULE
molecule
   51    54     1     0     0
SMALL
bcc


@<TRIPOS>ATOM
      1 C12          0.0000     0.0000     0.0000 ca         1 8F3      -0.103000
      2 C11          1.3800     0.0000     0.0000 ca         1 8F3      -0.037500
      3 C10          2.0740     0.0000     1.1970 ca         1 8F3      -0.334500
      4 S1           3.8360    -0.0020     1.1890 sy         1 8F3       1.226200
      5 O1           4.2430    -0.5440     2.4380 o          1 8F3      -0.518300
      6 O2           4.2310    -0.5480    -0.0620 o          1 8F3      -0.518300
      7 N2           4.3280     1.5800     1.1840 nz         1 8F3      -0.806500
      8 C15          1.3910     0.0030     2.4000 ca         1 8F3      -0.037500
      9 C14          0.0110     0.0040     2.4140 ca         1 8F3      -0.103000
     10 C13         -0.6950     0.0030     1.2100 ca         1 8F3      -0.032600
     11 C16         -2.1740     0.0040     1.2170 c          1 8F3       0.662700
     12 O3          -2.7840     0.7420     0.4700 o          1 8F3      -0.574100
     13 N1          -2.8440    -0.8140     2.0530 n          1 8F3      -0.469800
     14 C8          -4.3130    -0.9140     2.0120 c3         1 8F3       0.097000
     15 C9          -4.6760    -2.3360     1.5910 c3         1 8F3      -0.054100
     16 C5          -3.8880    -3.3470     2.3830 ca         1 8F3      -0.054300
     17 C4          -4.3810    -4.6450     2.4410 ca         1 8F3      -0.159000
     18 C3          -3.7040    -5.6260     3.1410 ca         1 8F3       0.112100
     19 O5          -4.1970    -6.8920     3.1920 oh         1 8F3      -0.494100
     20 C2          -2.5160    -5.3100     3.7930 ca         1 8F3       0.096100
     21 O4          -1.8390    -6.2680     4.4820 oh         1 8F3      -0.498100
     22 C1          -2.0290    -4.0170     3.7380 ca         1 8F3      -0.140000
     23 C6          -2.7160    -3.0350     3.0370 ca         1 8F3      -0.100300
     24 C7          -2.1400    -1.6450     3.0350 c3         1 8F3       0.200300
     25 C18         -2.2980    -1.0350     4.4040 ca         1 8F3      -0.127300
     26 C17         -1.5380    -1.5000     5.4600 ca         1 8F3      -0.126500
     27 C22         -1.6830    -0.9410     6.7150 ca         1 8F3      -0.120000
     28 C21         -2.5880     0.0840     6.9160 ca         1 8F3      -0.114000
     29 C20         -3.3480     0.5500     5.8590 ca         1 8F3      -0.120000
     30 C19         -3.2000    -0.0060     4.6020 ca         1 8F3      -0.126500
     31 H1          -0.5430    -0.0010    -0.9380 ha         1 8F3       0.184500
     32 H2           1.9200    -0.0020    -0.9390 ha         1 8F3       0.158500
     33 H3           3.9890     2.0370     2.0070 hn         1 8F3       0.492800
     34 H4           5.3280     1.6180     1.1700 hn         1 8F3       0.492800
     35 H5           1.9410     0.0040     3.3340 ha         1 8F3       0.158500
     36 H6          -0.5230     0.0070     3.3560 ha         1 8F3       0.184500
     37 H7          -4.7080    -0.7260     3.0030 h1         1 8F3       0.083200
     38 H8          -4.6950    -0.2180     1.2750 h1         1 8F3       0.083200
     39 H9          -5.7300    -2.4940     1.7840 hc         1 8F3       0.070700
     40 H10         -4.4340    -2.4570     0.5420 hc         1 8F3       0.070700
     41 H11         -5.3090    -4.8900     1.9360 ha         1 8F3       0.151000
     42 H12         -4.1610    -7.2780     2.3320 ho         1 8F3       0.423000
     43 H13         -1.1390    -6.6040     3.9470 ho         1 8F3       0.418000
     44 H14         -1.1050    -3.7690     4.2440 ha         1 8F3       0.139000
     45 H15         -1.0890    -1.6930     2.7760 h1         1 8F3       0.068700
     46 H16         -0.8280    -2.3030     5.3040 ha         1 8F3       0.139000
     47 H17         -1.0870    -1.3060     7.5430 ha         1 8F3       0.141500
     48 H18         -2.7020     0.5210     7.9000 ha         1 8F3       0.142000
     49 H19         -4.0560     1.3550     6.0150 ha         1 8F3       0.141500
     50 H20         -3.7960     0.3600     3.7750 ha         1 8F3       0.139000
     51 H23          3.9790     2.0360     0.3650 hn         1 8F3       0.492800
@<TRIPOS>BOND
     1    21    20 1   
     2    19    18 1   
     3    20    18 ar  
     4    20    22 ar  
     5    18    17 ar  
     6    22    23 ar  
     7    17    16 ar  
     8    23    16 ar  
     9    23    24 1   
    10    16    15 1   
    11    24    13 1   
    12    24    25 1   
    13    15    14 1   
    14    26    25 ar  
    15    26    27 ar  
    16    12    11 2   
    17    13    11 1   
    18    13    14 1   
    19    25    30 ar  
    20    11    10 1   
    21    27    28 ar  
    22     1    10 ar  
    23     1     2 ar  
    24    10     9 ar  
    25    30    29 ar  
    26     2     3 ar  
    27    28    29 ar  
    28     9     8 ar  
    29     3     8 ar  
    30     3     4 1   
    31     7     4 1   
    32     5     4 2   
    33     4     6 2   
    34     1    31 1   
    35     2    32 1   
    36     7    33 1   
    37     7    34 1   
    38     8    35 1   
    39     9    36 1   
    40    14    37 1   
    41    14    38 1   
    42    15    39 1   
    43    15    40 1   
    44    17    41 1   
    45    19    42 1   
    46    21    43 1   
    47    22    44 1   
    48    24    45 1   
    49    26    46 1   
    50    27    47 1   
    51    28    48 1   
    52    29    49 1   
    53    30    50 1   
    54    51     7 1   
@<TRIPOS>SUBSTRUCTURE
     1 8F3         1 TEMP              0 ****  ****    0 ROOT
