@<TRIPOS>MOLECULE
8F3
   51    54     1     0     0
SMALL
bcc


@<TRIPOS>ATOM
      1 C12          0.0000     0.0000     0.0000 ca         1 8F3      -0.087000
      2 C11          1.3800     0.0000     0.0000 ca         1 8F3       0.004500
      3 C10          2.0740     0.0000     1.1970 ca         1 8F3      -0.221500
      4 S1           3.8360    -0.0020     1.1890 sy         1 8F3       0.935200
      5 O1           4.2430    -0.5440     2.4380 o          1 8F3      -0.496800
      6 O2           4.2310    -0.5480    -0.0620 o          1 8F3      -0.496800
      7 N2           4.3280     1.5800     1.1840 nz         1 8F3      -0.129500
      8 C15          1.3910     0.0030     2.4000 ca         1 8F3       0.004500
      9 C14          0.0110     0.0040     2.4140 ca         1 8F3      -0.087000
     10 C13         -0.6950     0.0030     1.2100 ca         1 8F3      -0.031600
     11 C16         -2.1740     0.0040     1.2170 c          1 8F3       0.586700
     12 O3          -2.7840     0.7420     0.4700 o          1 8F3      -0.619100
     13 N1          -2.8440    -0.8140     2.0530 n          1 8F3      -0.118800
     14 C8          -4.3130    -0.9140     2.0120 c3         1 8F3       0.023000
     15 C9          -4.6760    -2.3360     1.5910 c3         1 8F3       0.019900
     16 C5          -3.8880    -3.3470     2.3830 ca         1 8F3      -0.064300
     17 C4          -4.3810    -4.6450     2.4410 ca         1 8F3      -0.137000
     18 C3          -3.7040    -5.6260     3.1410 ca         1 8F3       0.122100
     19 O5          -4.1970    -6.8920     3.1920 oh         1 8F3      -0.472100
     20 C2          -2.5160    -5.3100     3.7930 ca         1 8F3       0.106100
     21 O4          -1.8390    -6.2680     4.4820 oh         1 8F3      -0.476100
     22 C1          -2.0290    -4.0170     3.7380 ca         1 8F3      -0.127000
     23 C6          -2.7160    -3.0350     3.0370 ca         1 8F3      -0.111300
     24 C7          -2.1400    -1.6450     3.0350 c3         1 8F3       0.127300
     25 C18         -2.2980    -1.0350     4.4040 ca         1 8F3      -0.134300
     26 C17         -1.5380    -1.5000     5.4600 ca         1 8F3      -0.112500
     27 C22         -1.6830    -0.9410     6.7150 ca         1 8F3      -0.086000
     28 C21         -2.5880     0.0840     6.9160 ca         1 8F3      -0.086000
     29 C20         -3.3480     0.5500     5.8590 ca         1 8F3      -0.086000
     30 C19         -3.2000    -0.0060     4.6020 ca         1 8F3      -0.112500
     31 H1          -0.5430    -0.0010    -0.9380 ha         1 8F3       0.153500
     32 H2           1.9200    -0.0020    -0.9390 ha         1 8F3       0.127500
     33 H3           3.9890     2.0370     2.0070 hn         1 8F3       0.314133
     34 H4           5.3280     1.6180     1.1700 hn         1 8F3       0.314133
     35 H5           1.9410     0.0040     3.3340 ha         1 8F3       0.127500
     36 H6          -0.5230     0.0070     3.3560 ha         1 8F3       0.153500
     37 H7          -4.7080    -0.7260     3.0030 h1         1 8F3       0.058200
     38 H8          -4.6950    -0.2180     1.2750 h1         1 8F3       0.058200
     39 H9          -5.7300    -2.4940     1.7840 hc         1 8F3       0.037200
     40 H10         -4.4340    -2.4570     0.5420 hc         1 8F3       0.037200
     41 H11         -5.3090    -4.8900     1.9360 ha         1 8F3       0.124000
     42 H12         -4.1610    -7.2780     2.3320 ho         1 8F3       0.403000
     43 H13         -1.1390    -6.6040     3.9470 ho         1 8F3       0.399000
     44 H14         -1.1050    -3.7690     4.2440 ha         1 8F3       0.117000
     45 H15         -1.0890    -1.6930     2.7760 h1         1 8F3       0.048700
     46 H16         -0.8280    -2.3030     5.3040 ha         1 8F3       0.121000
     47 H17         -1.0870    -1.3060     7.5430 ha         1 8F3       0.111500
     48 H18         -2.7020     0.5210     7.9000 ha         1 8F3       0.112000
     49 H19         -4.0560     1.3550     6.0150 ha         1 8F3       0.111500
     50 H20         -3.7960     0.3600     3.7750 ha         1 8F3       0.121000
     51 H23          3.9790     2.0360     0.3650 hn         1 8F3       0.314133
@<TRIPOS>BOND
     1     1     2 ar  
     2     1    10 ar  
     3     1    31 1   
     4     2     3 ar  
     5     2    32 1   
     6     3     4 1   
     7     3     8 ar  
     8     4     5 2   
     9     4     6 2   
    10     4     7 1   
    11     7    33 1   
    12     7    34 1   
    13     7    51 1   
    14     8     9 ar  
    15     8    35 1   
    16     9    10 ar  
    17     9    36 1   
    18    10    11 1   
    19    11    12 2   
    20    11    13 1   
    21    13    14 1   
    22    13    24 1   
    23    14    15 1   
    24    14    37 1   
    25    14    38 1   
    26    15    16 1   
    27    15    39 1   
    28    15    40 1   
    29    16    17 ar  
    30    16    23 ar  
    31    17    18 ar  
    32    17    41 1   
    33    18    19 1   
    34    18    20 ar  
    35    19    42 1   
    36    20    21 1   
    37    20    22 ar  
    38    21    43 1   
    39    22    23 ar  
    40    22    44 1   
    41    23    24 1   
    42    24    25 1   
    43    24    45 1   
    44    25    26 ar  
    45    25    30 ar  
    46    26    27 ar  
    47    26    46 1   
    48    27    28 ar  
    49    27    47 1   
    50    28    29 ar  
    51    28    48 1   
    52    29    30 ar  
    53    29    49 1   
    54    30    50 1   
@<TRIPOS>SUBSTRUCTURE
     1 8F3         1 TEMP              0 ****  ****    0 ROOT
