@<TRIPOS>MOLECULE
8F4
   22    22     1     0     0
SMALL
bcc


@<TRIPOS>ATOM
      1 O            0.0000     0.0000     0.0000 o          1 8F4      -0.686500
      2 C            1.2130     0.0000     0.0000 c          1 8F4       0.593500
      3 NZ           1.8770     0.0000     1.1560 ns         1 8F4      -0.102900
      4 CE           3.3500    -0.0060     1.1710 c3         1 8F4       0.019000
      5 CD           3.8490     1.3680     0.7230 c3         1 8F4      -0.050400
      6 CG           3.9540     1.4400    -0.7900 c3         1 8F4      -0.024400
      7 CB           2.6150     1.3740    -1.5010 c3         1 8F4      -0.020400
      8 CA           1.9680    -0.0060    -1.3130 c3         1 8F4      -0.172500
      9 N            1.0370    -0.2720    -2.4160 nz         1 8F4       0.105400
     10 H1           1.3710     0.0040     2.0200 hn         1 8F4       0.215500
     11 H2           3.7160    -0.7640     0.4890 h1         1 8F4       0.041200
     12 H3           3.7010    -0.2100     2.1750 h1         1 8F4       0.041200
     13 H4           3.1560     2.1270     1.0670 hc         1 8F4       0.046700
     14 H5           4.8260     1.5490     1.1550 hc         1 8F4       0.046700
     15 H6           4.4400     2.3710    -1.0570 hc         1 8F4       0.037700
     16 H7           4.5660     0.6140    -1.1310 hc         1 8F4       0.037700
     17 H8           2.7650     1.5550    -2.5580 hc         1 8F4       0.041700
     18 H9           1.9580     2.1340    -1.0930 hc         1 8F4       0.041700
     19 H10          2.7370    -0.7670    -1.2860 hx         1 8F4       0.103700
     20 H11          1.5470    -0.3420    -3.2740 hn         1 8F4       0.228800
     21 H12          0.5530    -1.1320    -2.2450 hn         1 8F4       0.228800
     22 HN3          0.3740     0.4750    -2.4820 hn         1 8F4       0.228800
@<TRIPOS>BOND
     1     1     2 2   
     2     2     3 1   
     3     2     8 1   
     4     3     4 1   
     5     3    10 1   
     6     4     5 1   
     7     4    11 1   
     8     4    12 1   
     9     5     6 1   
    10     5    13 1   
    11     5    14 1   
    12     6     7 1   
    13     6    15 1   
    14     6    16 1   
    15     7     8 1   
    16     7    17 1   
    17     7    18 1   
    18     8     9 1   
    19     8    19 1   
    20     9    20 1   
    21     9    21 1   
    22     9    22 1   
@<TRIPOS>SUBSTRUCTURE
     1 8F4         1 TEMP              0 ****  ****    0 ROOT
