@<TRIPOS>MOLECULE
molecule
   50    53     1     0     0
SMALL
bcc


@<TRIPOS>ATOM
      1 C13          0.0000     0.0000     0.0000 c3         1 8F6      -0.075100
      2 C17          2.6310    -2.6110     1.9350 cx         1 8F6      -0.129400
      3 C20          8.8610    -1.1660     1.9130 c3         1 8F6      -0.110100
      4 C21          9.9350     1.8550     2.9940 ca         1 8F6      -0.121500
      5 C22         10.5530     2.5000     4.0480 ca         1 8F6      -0.123000
      6 C24          9.1910     1.2820     5.5930 ca         1 8F6      -0.123000
      7 C01          6.3710     0.0000     0.0000 ca         1 8F6      -0.191000
      8 C02          5.9160     0.0000     1.3120 ca         1 8F6       0.190600
      9 C03          4.5560    -0.1110     1.5770 ca         1 8F6      -0.169000
     10 C04          3.6540    -0.2220     0.5300 ca         1 8F6       0.102600
     11 C05          4.1180    -0.2190    -0.7850 ca         1 8F6      -0.020400
     12 C06          5.4740    -0.1100    -1.0450 ca         1 8F6      -0.110000
     13 C08          1.4750     0.3530    -0.2090 c3         1 8F6       0.113500
     14 C09          1.8960    -0.0630    -1.5950 c          1 8F6       0.666500
     15 C14          1.8940    -1.7520     0.9060 cx         1 8F6       0.093500
     16 C16          8.2590     0.2300     2.0890 c3         1 8F6       0.287800
     17 C18          1.1830    -2.1860     2.1900 cx         1 8F6      -0.129400
     18 C19          8.9390     0.9280     3.2390 ca         1 8F6      -0.095300
     19 C23         10.1820     2.2120     5.3480 ca         1 8F6      -0.126000
     20 C25          8.5660     0.6410     4.5390 ca         1 8F6      -0.121500
     21 N07          2.2880    -0.3410     0.7930 nh         1 8F6      -0.571000
     22 N10          3.1980    -0.3280    -1.8420 n          1 8F6      -0.376000
     23 N15          6.8250     0.1130     2.3680 nu         1 8F6      -0.824600
     24 O12          1.0730    -0.1620    -2.4810 o          1 8F6      -0.632500
     25 H1          -0.1910    -0.9960    -0.3810 hc         1 8F6       0.051033
     26 H2          -0.6200     0.7130    -0.5290 hc         1 8F6       0.051033
     27 H3          -0.2330     0.0330     1.0570 hc         1 8F6       0.051033
     28 H4           3.3800    -2.0960     2.5240 hc         1 8F6       0.079200
     29 H5           2.7720    -3.6500     1.6620 hc         1 8F6       0.079200
     30 H7           8.8590    -1.4300     0.8630 hc         1 8F6       0.044367
     31 H8           8.2710    -1.8860     2.4680 hc         1 8F6       0.044367
     32 H9          10.2260     2.0800     1.9750 ha         1 8F6       0.130500
     33 H10         11.3320     3.2280     3.8560 ha         1 8F6       0.131500
     34 H11          8.8990     1.0570     6.6120 ha         1 8F6       0.131500
     35 H12          7.4310     0.0860    -0.2040 ha         1 8F6       0.136000
     36 H13          4.2020    -0.1110     2.6010 ha         1 8F6       0.144000
     37 H14          5.8310    -0.1100    -2.0680 ha         1 8F6       0.136000
     38 H15          1.6110     1.4220    -0.1010 h1         1 8F6       0.092700
     39 H19          1.5810    -2.2810     0.0140 h1         1 8F6       0.080700
     40 H20          8.4050     0.8030     1.1810 h1         1 8F6       0.062700
     41 H21          0.4400    -2.9660     2.0720 hc         1 8F6       0.079200
     42 H22          1.0480    -1.4110     2.9340 hc         1 8F6       0.079200
     43 H23         10.6690     2.7160     6.1750 ha         1 8F6       0.132000
     44 H24          7.7880    -0.0870     4.7320 ha         1 8F6       0.130500
     45 H25          6.4930     0.1620     3.3110 hn         1 8F6       0.441800
     46 C11          3.6410    -0.7170    -3.1830 c3         1 8F6       0.095300
     47 H6           9.8780    -1.1700     2.2850 hc         1 8F6       0.044367
     48 H16          4.3750    -1.5100    -3.1040 h1         1 8F6       0.049033
     49 H17          4.0850     0.1380    -3.6790 h1         1 8F6       0.049033
     50 H18          2.7920    -1.0670    -3.7570 h1         1 8F6       0.049033
@<TRIPOS>BOND
     1     6    19 ar
     2     6    20 ar
     3    19     5 ar
     4    20    18 ar
     5     5     4 ar
     6     2    17 1
     7     2    15 1
     8    18     4 ar
     9    18    16 1
    10    17    15 1
    11     3    16 1
    12    16    23 1
    13    15    21 1
    14    21    10 1
    15    21    13 1
    16     9    10 ar
    17     9     8 ar
    18    23     8 1
    19    10    11 ar
    20     8     7 ar
    21    13    14 1
    22    13     1 1
    23    14    24 2
    24    14    22 1
    25    11    22 1
    26    11    12 ar
    27     7    12 ar
    28    22    46 1
    29     1    25 1
    30     1    26 1
    31     1    27 1
    32     2    28 1
    33     2    29 1
    34     3    47 1
    35     3    30 1
    36     3    31 1
    37     4    32 1
    38     5    33 1
    39     6    34 1
    40     7    35 1
    41     9    36 1
    42    12    37 1
    43    13    38 1
    44    46    48 1
    45    46    49 1
    46    46    50 1
    47    15    39 1
    48    16    40 1
    49    17    41 1
    50    17    42 1
    51    19    43 1
    52    20    44 1
    53    23    45 1
@<TRIPOS>SUBSTRUCTURE
     1 8F6         1 TEMP              0 ****  ****    0 ROOT
