@<TRIPOS>MOLECULE
8F7
   47    49     1     0     0
SMALL
bcc


@<TRIPOS>ATOM
      1 N28         -1.2960    -0.0180    -2.2170 n1         1 8F7      -0.376800
      2 C27         -0.7190     0.0000    -1.2390 cg         1 8F7       0.227800
      3 C23          0.0000     0.0000     0.0000 ca         1 8F7      -0.007000
      4 C24          1.3970     0.0000     0.0000 ca         1 8F7      -0.059000
      5 C25          2.0830     0.0000     1.1960 ca         1 8F7      -0.088300
      6 C29          3.5900     0.0010     1.1990 c3         1 8F7       0.209100
      7 N30          4.0790     1.3860     1.2000 n7         1 8F7      -0.645200
      8 C31          5.5480     1.4250     1.2030 c3         1 8F7       0.221100
      9 C22         -0.6920     0.0050     1.2130 ca         1 8F7      -0.093000
     10 C21          0.0070     0.0050     2.4020 ca         1 8F7      -0.079300
     11 C26          1.3910     0.0010     2.3950 ca         1 8F7      -0.078000
     12 C13         -0.7380     0.0110     3.7120 c3         1 8F7       0.014900
     13 C12         -0.9950    -1.4290     4.1580 c3         1 8F7      -0.020100
     14 C08         -1.7410    -1.4230     5.4690 ca         1 8F7      -0.095300
     15 C09         -3.1030    -1.4170     5.4650 ca         1 8F7      -0.188300
     16 C07         -1.0260    -1.4290     6.6640 ca         1 8F7      -0.120000
     17 C06         -1.6710    -1.4290     7.8640 ca         1 8F7      -0.062000
     18 C05         -3.0740    -1.4240     7.8970 ca         1 8F7      -0.218300
     19 C04         -3.7760    -1.4240     9.1200 ca         1 8F7       0.047700
     20 C11         -3.0410    -1.4290    10.4350 c3         1 8F7      -0.440800
     21 C03         -5.1380    -1.4180     9.0820 ca         1 8F7      -0.295300
     22 C02         -5.8030    -1.4130     7.8470 ca         1 8F7       0.494200
     23 N02         -7.1890    -1.4070     7.8240 nv         1 8F7      -0.537500
     24 N01         -5.1410    -1.4130     6.7080 nb         1 8F7      -0.659000
     25 C10         -3.8030    -1.4120     6.6840 ca         1 8F7       0.473600
     26 H1           2.0200     0.0950    -0.8810 ha         1 8F7       0.122000
     27 H2           3.8470    -0.4860     2.1320 h1         1 8F7       0.001200
     28 H3           4.1410    -0.5830     0.4720 h1         1 8F7       0.001200
     29 H4           3.3930     1.9920     1.6040 hn         1 8F7       0.302800
     30 H6           5.9230     1.6130     2.2010 h1         1 8F7      -0.005967
     31 H7           5.9780     2.0040     0.3940 h1         1 8F7      -0.005967
     32 H8           5.9780     0.4850     0.8810 h1         1 8F7      -0.005967
     33 H9          -1.6270    -0.1930     0.7030 ha         1 8F7       0.143000
     34 H10          1.8160     0.0540     3.3900 ha         1 8F7       0.116000
     35 H11         -1.7160     0.4300     3.5110 hc         1 8F7       0.042200
     36 H12          0.0330     0.3760     4.3800 hc         1 8F7       0.042200
     37 H13         -0.2610    -2.0570     3.6680 hc         1 8F7       0.031700
     38 H14         -1.8890    -1.5950     3.5690 hc         1 8F7       0.031700
     39 H15         -3.1140    -1.2440     4.3960 ha         1 8F7       0.148000
     40 H16         -0.0900    -0.9540     6.3950 ha         1 8F7       0.117000
     41 H17         -1.2800    -1.3980     8.8730 ha         1 8F7       0.124000
     42 H18         -2.8090    -2.2790    11.0650 hc         1 8F7       0.179033
     43 H19         -3.9520    -1.5920    10.9980 hc         1 8F7       0.179033
     44 H20         -2.4850    -2.1650     9.8650 hc         1 8F7       0.179033
     45 H21         -5.7980    -1.6060     9.9200 ha         1 8F7       0.118000
     46 H22         -7.5120    -2.1880     8.3610 hn         1 8F7       0.256300
     47 H23         -7.6220    -1.2240     6.9410 hn         1 8F7       0.256300
@<TRIPOS>BOND
     1     1     2 3   
     2     2     3 1   
     3     3     4 ar  
     4     3     9 ar  
     5     4     5 ar  
     6     4    26 1   
     7     5     6 1   
     8     5    11 ar  
     9     6     7 1   
    10     6    27 1   
    11     6    28 1   
    12     7     8 1   
    13     7    29 1   
    14     8    30 1   
    15     8    31 1   
    16     8    32 1   
    17     9    10 ar  
    18     9    33 1   
    19    10    11 ar  
    20    10    12 1   
    21    11    34 1   
    22    12    13 1   
    23    12    35 1   
    24    12    36 1   
    25    13    14 1   
    26    13    37 1   
    27    13    38 1   
    28    14    15 ar  
    29    14    16 ar  
    30    15    25 ar  
    31    15    39 1   
    32    16    17 ar  
    33    16    40 1   
    34    17    18 ar  
    35    17    41 1   
    36    18    19 ar  
    37    18    25 ar  
    38    19    20 1   
    39    19    21 ar  
    40    20    42 1   
    41    20    43 1   
    42    20    44 1   
    43    21    22 ar  
    44    21    45 1   
    45    22    23 1   
    46    22    24 ar  
    47    23    46 1   
    48    23    47 1   
    49    24    25 ar  
@<TRIPOS>SUBSTRUCTURE
     1 8F7         1 TEMP              0 ****  ****    0 ROOT
