@<TRIPOS>MOLECULE
molecule
   53    56     1     0     0
SMALL
bcc


@<TRIPOS>ATOM
      1 C13          0.0000     0.0000     0.0000 c3         1 8F9      -0.075100
      2 C17          1.6680     3.7210    -0.9280 cx         1 8F9      -0.129400
      3 C20          8.4340     1.3850    -2.6900 c3         1 8F9      -0.111100
      4 C21          9.1610     4.6820    -2.9100 ca         1 8F9      -0.118000
      5 C22          9.6010     5.6610    -3.7800 ca         1 8F9      -0.123500
      6 C24          8.1210     4.8290    -5.4680 ca         1 8F9      -0.123500
      7 C01          6.1380     1.6830    -0.2700 ca         1 8F9      -0.192000
      8 C02          5.5200     2.0210    -1.4660 ca         1 8F9       0.191600
      9 C03          4.1490     1.8560    -1.6130 ca         1 8F9      -0.169000
     10 C04          3.3970     1.3530    -0.5620 ca         1 8F9       0.102600
     11 C05          4.0240     1.0130     0.6360 ca         1 8F9      -0.021400
     12 C06          5.3930     1.1750     0.7770 ca         1 8F9      -0.110000
     13 C08          1.5300     0.0000     0.0000 c3         1 8F9       0.113500
     14 C09          2.0300     0.0000     1.4220 c          1 8F9       0.666500
     15 C14          1.2970     2.3930    -0.2650 cx         1 8F9       0.092500
     16 C16          7.7250     2.7020    -2.3730 c3         1 8F9       0.288800
     17 C18          0.3360     3.0450    -1.2610 cx         1 8F9      -0.129400
     18 C19          8.2050     3.7710    -3.3210 ca         1 8F9      -0.100300
     19 C23          9.0810     5.7350    -5.0580 ca         1 8F9      -0.079300
     20 C25          7.6890     3.8420    -4.6020 ca         1 8F9      -0.118000
     21 N07          2.0170     1.1900    -0.7040 nh         1 8F9      -0.572000
     22 N10          3.2570     0.4960     1.6950 n          1 8F9      -0.375000
     23 N15          6.2780     2.5280    -2.5260 nu         1 8F9      -0.824600
     24 O12          1.3360    -0.4410     2.3140 o          1 8F9      -0.633500
     25 H1          -0.3610     0.7710     0.6700 hc         1 8F9       0.051033
     26 H2          -0.3610     0.1940    -1.0030 hc         1 8F9       0.051033
     27 H3          -0.3610    -0.9650     0.3330 hc         1 8F9       0.051033
     28 H4           2.4270     3.6620    -1.6990 hc         1 8F9       0.078950
     29 H5           1.6020     4.5950    -0.2930 hc         1 8F9       0.078950
     30 H6           9.4030     1.5920    -3.1280 hc         1 8F9       0.044700
     31 H7           8.5650     0.8170    -1.7770 hc         1 8F9       0.044700
     32 H8           7.8370     0.8120    -3.3890 hc         1 8F9       0.044700
     33 H9           9.5680     4.6240    -1.9080 ha         1 8F9       0.130000
     34 H10         10.3520     6.3730    -3.4580 ha         1 8F9       0.132500
     35 H11          7.7160     4.8850    -6.4700 ha         1 8F9       0.132500
     36 H12         10.5260     6.5470    -6.3950 hc         1 8F9       0.044700
     37 H13          8.8480     6.9110    -6.8190 hc         1 8F9       0.044700
     38 H14          9.6220     7.7530    -5.4700 hc         1 8F9       0.044700
     39 H15          7.2080     1.8120    -0.1590 ha         1 8F9       0.136000
     40 H16          3.6680     2.1200    -2.5470 ha         1 8F9       0.144000
     41 H17          5.8770     0.9120     1.7090 ha         1 8F9       0.136000
     42 H18          1.8930    -0.8870    -0.5050 h1         1 8F9       0.092700
     43 H22          0.9970     2.4730     0.7730 h1         1 8F9       0.080700
     44 H23          7.9480     2.9970    -1.3550 h1         1 8F9       0.063700
     45 H24          0.2810     2.5740    -2.2350 hc         1 8F9       0.078950
     46 H25         -0.5430     3.5070    -0.8290 hc         1 8F9       0.078950
     47 H26          6.9390     3.1300    -4.9230 ha         1 8F9       0.130000
     48 H27          5.8350     2.7580    -3.3930 hn         1 8F9       0.441800
     49 C11          3.7770     0.4940     3.0640 c3         1 8F9       0.094300
     50 C26          9.5520     6.8120    -6.0020 c3         1 8F9      -0.048800
     51 H19          4.5110    -0.2970     3.1710 h1         1 8F9       0.049367
     52 H20          2.9630     0.3270     3.7590 h1         1 8F9       0.049367
     53 H21          4.2420     1.4490     3.2760 h1         1 8F9       0.049367
@<TRIPOS>BOND
     1    49    22 1
     2    12     7 ar
     3    12    11 ar
     4     7     8 ar
     5    22    11 1
     6    22    14 1
     7     1    13 1
     8    24    14 2
     9    11    10 ar
    10    14    13 1
    11     8    23 1
    12     8     9 ar
    13    13    21 1
    14    10     9 ar
    15    10    21 1
    16    23    16 1
    17    21    15 1
    18    16     3 1
    19    16    18 1
    20    15     2 1
    21    15    17 1
    22     2    17 1
    23    20    18 ar
    24    20     6 ar
    25    18     4 ar
    26     6    19 ar
    27     4     5 ar
    28    19     5 ar
    29    19    50 1
    30     1    25 1
    31     1    26 1
    32     1    27 1
    33     2    28 1
    34     2    29 1
    35     3    30 1
    36     3    31 1
    37     3    32 1
    38     4    33 1
    39     5    34 1
    40     6    35 1
    41    50    36 1
    42    50    37 1
    43    50    38 1
    44     7    39 1
    45     9    40 1
    46    12    41 1
    47    13    42 1
    48    49    51 1
    49    49    52 1
    50    49    53 1
    51    15    43 1
    52    16    44 1
    53    17    45 1
    54    17    46 1
    55    20    47 1
    56    23    48 1
@<TRIPOS>SUBSTRUCTURE
     1 8F9         1 TEMP              0 ****  ****    0 ROOT
