@<TRIPOS>MOLECULE
molecule
   53    56     1     0     0
SMALL
bcc


@<TRIPOS>ATOM
      1 C10          0.0000     0.0000     0.0000 c          1 8FC       0.675500
      2 C13          2.0160     1.2470    -0.7260 c3         1 8FC      -0.077100
      3 C15          1.4370     2.0090     7.1110 ca         1 8FC      -0.321500
      4 C17          2.2700     0.2080     8.4510 ca         1 8FC      -0.152500
      5 C20          0.2460     1.3300     6.9370 ca         1 8FC      -0.021500
      6 C22         -2.1290     0.7070     0.9790 c3         1 8FC       0.097300
      7 C24          2.5890    -1.5900     3.3040 cx         1 8FC      -0.146400
      8 C01          0.2320     2.9900     3.6850 ca         1 8FC      -0.139000
      9 C02          1.5650     2.6580     3.8840 ca         1 8FC       0.113600
     10 C03          2.1580     1.6640     3.1170 ca         1 8FC      -0.106000
     11 C04          1.4170     1.0030     2.1490 ca         1 8FC       0.064600
     12 C05          0.0790     1.3420     1.9520 ca         1 8FC       0.030600
     13 C06         -0.5090     2.3330     2.7200 ca         1 8FC      -0.147000
     14 N07          2.3130     3.3260     4.8590 nu         1 8FC      -0.767500
     15 N08          2.0080     0.0000     1.3790 nh         1 8FC      -0.563000
     16 C09          1.5070     0.0000     0.0000 c3         1 8FC       0.120200
     17 N11         -0.6650     0.6750     0.9630 n          1 8FC      -0.375000
     18 O12         -0.6110    -0.5950    -0.8630 o          1 8FC      -0.620500
     19 C14          1.8320    -1.3180     2.0040 cx         1 8FC       0.096500
     20 C16          2.4500     1.4480     7.8680 ca         1 8FC      -0.021500
     21 C18          1.0790    -0.4720     8.2770 ca         1 8FC      -0.023300
     22 C19          0.0670     0.0890     7.5200 ca         1 8FC      -0.152500
     23 C23          1.0750    -1.3730     3.3320 cx         1 8FC      -0.146400
     24 C25          2.0140    -1.2500    -0.7220 c3         1 8FC      -0.077100
     25 S26          1.6680     3.5870     6.3620 sy         1 8FC       1.426200
     26 O27          0.3710     4.1260     6.1540 o          1 8FC      -0.635300
     27 O28          2.6730     4.2470     7.1210 o          1 8FC      -0.635300
     28 H1           1.7010     1.2150    -1.7620 hc         1 8FC       0.051700
     29 H2           3.0980     1.2770    -0.6780 hc         1 8FC       0.051700
     30 H3           1.6090     2.1320    -0.2520 hc         1 8FC       0.051700
     31 H4           3.0630    -0.2320     9.0440 ha         1 8FC       0.138000
     32 H5          -0.5470     1.7690     6.3450 ha         1 8FC       0.149500
     33 H6          -0.1380    -2.1520     8.7580 hc         1 8FC       0.050033
     34 H7           1.0860    -1.7590     9.9730 hc         1 8FC       0.050033
     35 H8           1.5620    -2.5380     8.4580 hc         1 8FC       0.050033
     36 H9          -2.4730     1.0260     1.9560 h1         1 8FC       0.050700
     37 H10         -2.5150    -0.2830     0.7660 h1         1 8FC       0.050700
     38 H11         -2.4830     1.4020     0.2270 h1         1 8FC       0.050700
     39 H12          3.1870    -0.7670     3.6770 hc         1 8FC       0.079450
     40 H13          2.9180    -2.6120     3.4480 hc         1 8FC       0.079450
     41 H14         -0.2280     3.7660     4.2850 ha         1 8FC       0.187000
     42 H15          3.1980     1.4060     3.2730 ha         1 8FC       0.152000
     43 H16         -1.5500     2.5930     2.5650 ha         1 8FC       0.146000
     44 H17          3.2350     3.6520     4.6460 hn         1 8FC       0.465800
     45 H18          1.6960    -2.1850     1.3680 h1         1 8FC       0.104700
     46 H19          3.3830     1.9810     8.0040 ha         1 8FC       0.149500
     47 H20         -0.8670    -0.4440     7.3840 ha         1 8FC       0.138000
     48 H21          0.7470    -0.4180     3.7240 hc         1 8FC       0.079450
     49 H22          0.4790    -2.2630     3.4940 hc         1 8FC       0.079450
     50 H23          1.3470    -2.0790    -0.5200 hc         1 8FC       0.051700
     51 H24          3.0090    -1.4930    -0.3690 hc         1 8FC       0.051700
     52 H25          2.0450    -1.0630    -1.7890 hc         1 8FC       0.051700
     53 C21          0.8840    -1.8250     8.9110 c3         1 8FC      -0.057800
@<TRIPOS>BOND
     1     6    17 1   
     2    13     8 ar  
     3    13    12 ar  
     4     8     9 ar  
     5    17     1 1   
     6    17    12 1   
     7     2    16 1   
     8    18     1 2   
     9     1    16 1   
    10    12    11 ar  
    11     9    14 1   
    12     9    10 ar  
    13    16    24 1   
    14    16    15 1   
    15    11    10 ar  
    16    11    15 1   
    17    14    25 1   
    18    15    19 1   
    19    25    27 2   
    20    25    26 2   
    21    25     3 1   
    22    19     7 1   
    23    19    23 1   
    24     7    23 1   
    25     5     3 ar  
    26     5    22 ar  
    27     3    20 ar  
    28    22    21 ar  
    29    20     4 ar  
    30    21     4 ar  
    31    21    53 1   
    32     2    28 1   
    33     2    29 1   
    34     2    30 1   
    35     4    31 1   
    36     5    32 1   
    37    53    33 1   
    38    53    34 1   
    39    53    35 1   
    40     6    36 1   
    41     6    37 1   
    42     6    38 1   
    43     7    39 1   
    44     7    40 1   
    45     8    41 1   
    46    10    42 1   
    47    13    43 1   
    48    14    44 1   
    49    19    45 1   
    50    20    46 1   
    51    22    47 1   
    52    23    48 1   
    53    23    49 1   
    54    24    50 1   
    55    24    51 1   
    56    24    52 1   
@<TRIPOS>SUBSTRUCTURE
     1 8FC         1 TEMP              0 ****  ****    0 ROOT
