@<TRIPOS>MOLECULE
molecule
   51    53     1     0     0
SMALL
bcc


@<TRIPOS>ATOM
      1 N28         -1.3050    -0.0000    -2.2120 n1         1 8FD      -0.369800
      2 C27         -0.7180    -0.0010    -1.2390 cg         1 8FD       0.243800
      3 C23          0.0000     0.0000     0.0000 ca         1 8FD       0.013000
      4 C24          1.3970     0.0000     0.0000 ca         1 8FD      -0.132000
      5 C25          2.0870     0.0000     1.1950 ca         1 8FD      -0.039300
      6 C31          3.5940     0.0010     1.1930 c3         1 8FD      -0.025100
      7 C32          4.1040     1.4430     1.1910 c3         1 8FD       0.161500
      8 C33          5.6280     1.4460     1.0630 c3         1 8FD      -0.128100
      9 N34          3.7160     2.1010     2.4470 n7         1 8FD      -0.815200
     10 C35          3.6370     3.5570     2.2760 c3         1 8FD       0.147100
     11 C22         -0.6920     0.0070     1.2120 ca         1 8FD      -0.194000
     12 C21          0.0110     0.0070     2.4050 ca         1 8FD       0.138100
     13 C26          1.3990     0.0010     2.3940 ca         1 8FD      -0.108000
     14 O13         -0.6600     0.0130     3.5870 os         1 8FD      -0.320900
     15 C12         -2.0880     0.0190     3.5240 c3         1 8FD       0.184700
     16 C08         -2.6520     0.0250     4.9200 ca         1 8FD      -0.086300
     17 C09         -2.8980     1.2130     5.5390 ca         1 8FD      -0.138300
     18 C07         -2.9200    -1.1840     5.5570 ca         1 8FD      -0.112000
     19 C06         -3.4350    -1.2110     6.8190 ca         1 8FD      -0.111000
     20 C05         -3.7020    -0.0060     7.4850 ca         1 8FD      -0.154300
     21 C04         -4.2360     0.0070     8.7900 ca         1 8FD      -0.035300
     22 C11         -4.5380    -1.2800     9.5130 c3         1 8FD      -0.051800
     23 C03         -4.4700     1.2120     9.3800 ca         1 8FD      -0.254300
     24 C02         -4.1810     2.3980     8.6880 ca         1 8FD       0.693200
     25 N02         -4.4260     3.6160     9.3020 nv         1 8FD      -1.085500
     26 N01         -3.6830     2.3790     7.4690 nb         1 8FD      -0.707000
     27 C10         -3.4250     1.2260     6.8410 ca         1 8FD       0.429600
     28 H1           1.9380    -0.0400    -0.9380 ha         1 8FD       0.139000
     29 H2           3.9540    -0.5100     0.3080 hc         1 8FD       0.053700
     30 H3           3.9560    -0.5090     2.0770 hc         1 8FD       0.053700
     31 H4           3.6700     1.9790     0.3550 h1         1 8FD       0.065700
     32 H5           6.0670     1.0370     1.9660 hc         1 8FD       0.039700
     33 H6           5.9770     2.4620     0.9200 hc         1 8FD       0.039700
     34 H7           5.9200     0.8410     0.2140 hc         1 8FD       0.039700
     35 H8           4.3870     1.8850     3.1580 hn         1 8FD       0.353800
     36 H10          3.1600     3.7850     1.3300 h1         1 8FD       0.032033
     37 H11          3.0560     3.9850     3.0850 h1         1 8FD       0.032033
     38 H12          4.6350     3.9770     2.2870 h1         1 8FD       0.032033
     39 H13         -1.7750     0.0110     1.2190 ha         1 8FD       0.143000
     40 H14          1.9460     0.0010     3.3300 ha         1 8FD       0.156000
     41 H15         -2.4290    -0.8660     3.0000 h1         1 8FD       0.044200
     42 H16         -2.4220     0.9030     2.9950 h1         1 8FD       0.044200
     43 H17         -2.6070     2.1420     5.0630 ha         1 8FD       0.154000
     44 H18         -2.7150    -2.1160     5.0440 ha         1 8FD       0.134000
     45 H19         -3.6390    -2.1580     7.3040 ha         1 8FD       0.136000
     46 H20         -4.9340    -1.0570    10.4970 hc         1 8FD       0.049367
     47 H21         -5.2690    -1.8480     8.9500 hc         1 8FD       0.049367
     48 H22         -3.6290    -1.8600     9.6130 hc         1 8FD       0.049367
     49 H23         -4.9290     1.2560    10.3600 ha         1 8FD       0.143000
     50 H24         -3.7130     4.0500     9.8550 hn         1 8FD       0.437300
     51 H25         -5.3050     4.0760     9.1690 hn         1 8FD       0.437300
@<TRIPOS>BOND
     1    22    21 1   
     2    21    23 ar  
     3    21    20 ar  
     4    23    24 ar  
     5    19    20 ar  
     6    19    18 ar  
     7    20    27 ar  
     8     1     2 3   
     9    18    16 ar  
    10    24    25 1   
    11    24    26 ar  
    12     2     3 1   
    13    27    26 ar  
    14    27    17 ar  
    15    11     3 ar  
    16    11    12 ar  
    17    16    17 ar  
    18    16    15 1   
    19    14    12 1   
    20    14    15 1   
    21     3     4 ar  
    22    12    13 ar  
    23     4     5 ar  
    24    13     5 ar  
    25     5     6 1   
    26     8     7 1   
    27     7     6 1   
    28     7     9 1   
    29    10     9 1   
    30     4    28 1   
    31     6    29 1   
    32     6    30 1   
    33     7    31 1   
    34     8    32 1   
    35     8    33 1   
    36     8    34 1   
    37     9    35 1   
    38    10    36 1   
    39    10    37 1   
    40    10    38 1   
    41    11    39 1   
    42    13    40 1   
    43    15    41 1   
    44    15    42 1   
    45    17    43 1   
    46    18    44 1   
    47    19    45 1   
    48    22    46 1   
    49    22    47 1   
    50    22    48 1   
    51    23    49 1   
    52    25    50 1   
    53    25    51 1   
@<TRIPOS>SUBSTRUCTURE
     1 8FD         1 TEMP              0 ****  ****    0 ROOT
