@<TRIPOS>MOLECULE
molecule
   86    89     1     0     0
SMALL
bcc


@<TRIPOS>ATOM
      1 O3           0.0000     0.0000     0.0000 o          1 8FF      -0.559100
      2 C25          1.2140     0.0000     0.0000 c          1 8FF       0.604700
      3 C26          1.9210     0.0000     1.2240 cc         1 8FF      -0.229900
      4 N1           1.3670     0.0010     2.4860 na         1 8FF      -0.116100
      5 C29          2.3640     0.0010     3.3960 cc         1 8FF      -0.131300
      6 C28          3.5550    -0.0010     2.7480 cd         1 8FF      -0.222000
      7 C27          3.2970    -0.0060     1.3760 cd         1 8FF      -0.136000
      8 C24          1.9680    -0.0070    -1.3050 c3         1 8FF      -0.170400
      9 C23          0.9730    -0.0130    -2.4680 c3         1 8FF      -0.072400
     10 C22          1.7330     0.1100    -3.7900 c3         1 8FF      -0.072700
     11 C30          0.7350     0.2110    -4.9450 c3         1 8FF      -0.078400
     12 C31         -0.0500     1.5190    -4.8270 c3         1 8FF      -0.086400
     13 C32         -1.1170     1.5750    -5.9220 c3         1 8FF      -0.083400
     14 C33         -1.9010     2.8830    -5.8040 c3         1 8FF      -0.092100
     15 C20          2.6170    -1.1250    -3.9860 c3         1 8FF      -0.068700
     16 C21          1.7350    -2.3690    -4.1040 c3         1 8FF      -0.096100
     17 C17          3.4420    -0.9620    -5.2640 c3         1 8FF      -0.055700
     18 C13          4.4310    -2.1080    -5.4030 c3         1 8FF      -0.061000
     19 C18          4.9050    -2.5390    -4.0140 c3         1 8FF      -0.091100
     20 C12          4.0090    -3.3290    -6.1880 c3         1 8FF      -0.065400
     21 C11          5.1410    -4.3650    -6.0770 c3         1 8FF      -0.079400
     22 C9           6.4610    -3.8220    -6.6210 c3         1 8FF      -0.043200
     23 C16          4.3140     0.3190    -5.1830 c3         1 8FF      -0.081400
     24 C15          5.7870    -0.1420    -5.3820 c3         1 8FF      -0.079400
     25 C14          5.6270    -1.4560    -6.1550 c3         1 8FF      -0.034500
     26 C8           6.7530    -2.4420    -6.0500 c2         1 8FF      -0.096400
     27 C7           7.9210    -2.1320    -5.4980 ce         1 8FF      -0.152000
     28 C6           8.9890    -3.1410    -5.4230 ce         1 8FF      -0.131000
     29 C5          10.1170    -2.8680    -4.7760 c2         1 8FF      -0.112400
     30 C10         11.2740    -3.8400    -4.8000 c3         1 8FF      -0.045200
     31 C4          10.2690    -1.5730    -4.0080 c3         1 8FF      -0.045200
     32 C3          11.5180    -0.8450    -4.5190 c3         1 8FF       0.193800
     33 O1          11.8260     0.2460    -3.6490 oh         1 8FF      -0.603300
     34 C2          12.6720    -1.8210    -4.5380 c2         1 8FF      -0.158400
     35 C19         13.7850    -1.5520    -3.9010 c2         1 8FF      -0.195000
     36 C1          12.5210    -3.1060    -5.3090 c3         1 8FF       0.193800
     37 O2          12.3780    -2.8160    -6.7020 oh         1 8FF      -0.603300
     38 H1           0.3880     0.0030     2.6940 hn         1 8FF       0.311700
     39 H2           2.2330     0.0030     4.4710 h4         1 8FF       0.168000
     40 H3           4.5340    -0.0030     3.2120 ha         1 8FF       0.152000
     41 H4           4.0330    -0.0080     0.5810 ha         1 8FF       0.153000
     42 H5           2.5900    -0.8920    -1.3580 hc         1 8FF       0.067700
     43 H6           2.5910     0.8770    -1.3670 hc         1 8FF       0.067700
     44 H7           0.4120    -0.9400    -2.4590 hc         1 8FF       0.058700
     45 H8           0.2910     0.8220    -2.3640 hc         1 8FF       0.058700
     46 H9           2.3530     0.9980    -3.7700 hc         1 8FF       0.052700
     47 H10          0.0490    -0.6260    -4.9040 hc         1 8FF       0.045200
     48 H11          1.2700     0.1950    -5.8870 hc         1 8FF       0.045200
     49 H12         -0.5260     1.5680    -3.8560 hc         1 8FF       0.043700
     50 H13          0.6270     2.3580    -4.9400 hc         1 8FF       0.043700
     51 H14         -1.7940     0.7370    -5.8090 hc         1 8FF       0.039200
     52 H15         -0.6410     1.5260    -6.8940 hc         1 8FF       0.039200
     53 H16         -1.2150     3.7210    -5.8520 hc         1 8FF       0.032033
     54 H17         -2.6130     2.9520    -6.6180 hc         1 8FF       0.032033
     55 H18         -2.4300     2.9030    -4.8590 hc         1 8FF       0.032033
     56 H19          3.2820    -1.2310    -3.1380 hc         1 8FF       0.058700
     57 H20          0.7580    -2.1600    -3.6840 hc         1 8FF       0.037367
     58 H21          1.6300    -2.6400    -5.1470 hc         1 8FF       0.037367
     59 H22          2.1930    -3.1880    -3.5620 hc         1 8FF       0.037367
     60 H23          2.7960    -0.9190    -6.1330 hc         1 8FF       0.057700
     61 H24          5.1870    -1.6640    -3.4410 hc         1 8FF       0.040033
     62 H25          5.7590    -3.1980    -4.1120 hc         1 8FF       0.040033
     63 H26          4.1040    -3.0600    -3.5050 hc         1 8FF       0.040033
     64 H27          3.0970    -3.7360    -5.7690 hc         1 8FF       0.045200
     65 H28          3.8570    -3.0620    -7.2270 hc         1 8FF       0.045200
     66 H29          5.2730    -4.6310    -5.0350 hc         1 8FF       0.043200
     67 H30          4.8650    -5.2480    -6.6400 hc         1 8FF       0.043200
     68 H31          6.4000    -3.7550    -7.7000 hc         1 8FF       0.049700
     69 H32          7.2630    -4.4970    -6.3460 hc         1 8FF       0.049700
     70 H33          4.0330     1.0100    -5.9680 hc         1 8FF       0.044700
     71 H34          4.2000     0.7840    -4.2110 hc         1 8FF       0.044700
     72 H35          6.3380     0.5830    -5.9690 hc         1 8FF       0.047700
     73 H36          6.2650    -0.3170    -4.4260 hc         1 8FF       0.047700
     74 H37          5.3720    -1.2680    -7.1910 hc         1 8FF       0.066700
     75 H38          8.0870    -1.1370    -5.1040 ha         1 8FF       0.135000
     76 H39          8.8940    -4.0680    -5.9750 ha         1 8FF       0.131000
     77 H40         11.0410    -4.6630    -5.4650 hc         1 8FF       0.058700
     78 H41         11.4550    -4.2130    -3.8000 hc         1 8FF       0.058700
     79 H42         10.3800    -1.7880    -2.9520 hc         1 8FF       0.058700
     80 H43          9.3960    -0.9520    -4.1690 hc         1 8FF       0.058700
     81 H44         11.3380    -0.4770    -5.5220 h1         1 8FF       0.046200
     82 H45         11.8710     1.0440    -4.1480 ho         1 8FF       0.401500
     83 H46         13.8840    -0.6240    -3.3520 ha         1 8FF       0.120500
     84 H47         14.6050    -2.2600    -3.9220 ha         1 8FF       0.120500
     85 H48         13.3950    -3.7270    -5.1510 h1         1 8FF       0.046200
     86 H49         13.0900    -3.2080    -7.1790 ho         1 8FF       0.401500
@<TRIPOS>BOND
     1    35    34 2   
     2    37    36 1   
     3    34    36 1   
     4    34    32 1   
     5    36    30 1   
     6    32    33 1   
     7    32    31 1   
     8    30    29 1   
     9    31    29 1   
    10    29    28 2   
    11    28    27 1   
    12    27    26 2   
    13    26    25 1   
    14    26    22 1   
    15    24    25 1   
    16    24    23 1   
    17    19    18 1   
    18    25    18 1   
    19    22    21 1   
    20    23    17 1   
    21    18    17 1   
    22    18    20 1   
    23    21    20 1   
    24    17    15 1   
    25     8     2 1   
    26     8     9 1   
    27     2     1 2   
    28     2     3 1   
    29    15    10 1   
    30    15    16 1   
    31     7     3 2   
    32     7     6 1   
    33     3     4 1   
    34     6     5 2   
    35    10     9 1   
    36    10    11 1   
    37     4     5 1   
    38    13    14 1   
    39    13    12 1   
    40    12    11 1   
    41     4    38 1   
    42     5    39 1   
    43     6    40 1   
    44     7    41 1   
    45     8    42 1   
    46     8    43 1   
    47     9    44 1   
    48     9    45 1   
    49    10    46 1   
    50    11    47 1   
    51    11    48 1   
    52    12    49 1   
    53    12    50 1   
    54    13    51 1   
    55    13    52 1   
    56    14    53 1   
    57    14    54 1   
    58    14    55 1   
    59    15    56 1   
    60    16    57 1   
    61    16    58 1   
    62    16    59 1   
    63    17    60 1   
    64    19    61 1   
    65    19    62 1   
    66    19    63 1   
    67    20    64 1   
    68    20    65 1   
    69    21    66 1   
    70    21    67 1   
    71    22    68 1   
    72    22    69 1   
    73    23    70 1   
    74    23    71 1   
    75    24    72 1   
    76    24    73 1   
    77    25    74 1   
    78    27    75 1   
    79    28    76 1   
    80    30    77 1   
    81    30    78 1   
    82    31    79 1   
    83    31    80 1   
    84    32    81 1   
    85    33    82 1   
    86    35    83 1   
    87    35    84 1   
    88    36    85 1   
    89    37    86 1   
@<TRIPOS>SUBSTRUCTURE
     1 8FF         1 TEMP              0 ****  ****    0 ROOT
