@<TRIPOS>MOLECULE
molecule
    9     8     1     0     0
SMALL
bcc


@<TRIPOS>ATOM
      1 O01          0.0000     0.0000     0.0000 oh         1 8FH      -0.591800
      2 C02          1.4300     0.0000     0.0000 c3         1 8FH       0.140400
      3 C03          1.9400     0.0000     1.4420 c3         1 8FH       0.276200
      4 Cl1          3.7430    -0.0000     1.4410 cl         1 8FH      -0.116733
      5 Cl2          1.3390     1.4720     2.2930 cl         1 8FH      -0.116733
      6 Cl3          1.3390    -1.4720     2.2920 cl         1 8FH      -0.116733
      7 H011        -0.3140     0.0000    -0.8890 ho         1 8FH       0.418000
      8 H021         1.7910    -0.8840    -0.5110 h1         1 8FH       0.053700
      9 H022         1.7910     0.8840    -0.5110 h1         1 8FH       0.053700
@<TRIPOS>BOND
     1     5     3 1
     2     3     6 1
     3     3     4 1
     4     3     2 1
     5     1     2 1
     6     1     7 1
     7     2     8 1
     8     2     9 1
@<TRIPOS>SUBSTRUCTURE
     1 8FH         1 TEMP              0 ****  ****    0 ROOT
