@<TRIPOS>MOLECULE
molecule
   43    46     1     0     0
SMALL
bcc


@<TRIPOS>ATOM
      1 O2           0.0000     0.0000     0.0000 o          1 8FK      -0.646500
      2 C            1.2160     0.0000     0.0000 c          1 8FK       0.714100
      3 C13          1.8480     0.0000     1.3180 ca         1 8FK      -0.101600
      4 C16          1.3400     0.8370     2.3210 ca         1 8FK      -0.080000
      5 C17          1.9260     0.8600     3.5670 ca         1 8FK      -0.123000
      6 C18          3.0210     0.0580     3.8430 ca         1 8FK      -0.117000
      7 C15          3.5330    -0.7750     2.8680 ca         1 8FK      -0.093000
      8 C14          2.9510    -0.8130     1.6080 ca         1 8FK       0.019900
      9 S            3.6020    -1.8910     0.3770 ss         1 8FK      -0.189800
     10 C2           4.0740    -0.7820    -0.9080 ca         1 8FK      -0.005100
     11 C3           5.4060    -0.7210    -1.2940 ca         1 8FK      -0.068000
     12 C6           5.8000     0.1460    -2.3030 ca         1 8FK       0.040600
     13 C5           4.8560     0.9510    -2.9250 ca         1 8FK      -0.128000
     14 C4           3.5320     0.8900    -2.5410 ca         1 8FK      -0.140000
     15 C1           3.1260     0.0240    -1.5280 ca         1 8FK       0.068600
     16 N            1.7820    -0.0050    -1.1770 n          1 8FK      -0.355000
     17 C12          0.8510    -0.0410    -2.3080 c3         1 8FK       0.084300
     18 N1           7.1440     0.2080    -2.6910 ns         1 8FK      -0.482100
     19 C7           7.9110    -0.9000    -2.6490 c          1 8FK       0.658100
     20 O1           7.4140    -1.9700    -2.3660 o          1 8FK      -0.555100
     21 C8           9.3830    -0.8100    -2.9530 c3         1 8FK       0.059100
     22 C10          9.6050    -0.3960    -4.4250 c3         1 8FK      -0.111400
     23 C11         10.8430    -1.2110    -4.8610 c3         1 8FK      -0.113400
     24 C9          11.2230    -2.0200    -3.6010 c3         1 8FK       0.120400
     25 O           10.0020    -2.1100    -2.8380 os         1 8FK      -0.370600
     26 H15          0.4840     1.4680     2.1150 ha         1 8FK       0.152000
     27 H16          1.5290     1.5110     4.3370 ha         1 8FK       0.136000
     28 H17          3.4760     0.0830     4.8260 ha         1 8FK       0.136000
     29 H14          4.3900    -1.4010     3.0870 ha         1 8FK       0.147000
     30 H            6.1390    -1.3510    -0.8050 ha         1 8FK       0.179000
     31 H2           5.1600     1.6290    -3.7140 ha         1 8FK       0.135000
     32 H1           2.8010     1.5220    -3.0320 ha         1 8FK       0.143000
     33 H11          1.3750    -0.3650    -3.1990 h1         1 8FK       0.053367
     34 H12          0.0460    -0.7340    -2.0910 h1         1 8FK       0.053367
     35 H13          0.4410     0.9490    -2.4700 h1         1 8FK       0.053367
     36 H3           7.5450     1.0830    -2.9670 hn         1 8FK       0.323500
     37 H4           9.8680    -0.1040    -2.2890 h1         1 8FK       0.059700
     38 H7           9.8080     0.6660    -4.4930 hc         1 8FK       0.057200
     39 H8           8.7450    -0.6640    -5.0270 hc         1 8FK       0.057200
     40 H9          10.5890    -1.8780    -5.6750 hc         1 8FK       0.056700
     41 H10         11.6520    -0.5480    -5.1420 hc         1 8FK       0.056700
     42 H5          11.9830    -1.4960    -3.0330 h1         1 8FK       0.055200
     43 H6          11.5670    -3.0090    -3.8790 h1         1 8FK       0.055200
@<TRIPOS>BOND
     1     1     2 2
     2    17    16 1
     3     2    16 1
     4     2     3 1
     5    16    15 1
     6     4     3 ar
     7     4     5 ar
     8     3     8 ar
     9    15    14 ar
    10    15    10 ar
    11    14    13 ar
    12     5     6 ar
    13     8     9 1
    14     8     7 ar
    15     9    10 1
    16    10    11 ar
    17     6     7 ar
    18    13    12 ar
    19    11    12 ar
    20    12    18 1
    21    18    19 1
    22    19    20 2
    23    19    21 1
    24    21    22 1
    25    21    25 1
    26    22    23 1
    27    25    24 1
    28    23    24 1
    29     4    26 1
    30     5    27 1
    31     6    28 1
    32     7    29 1
    33    11    30 1
    34    13    31 1
    35    14    32 1
    36    17    33 1
    37    17    34 1
    38    17    35 1
    39    18    36 1
    40    21    37 1
    41    22    38 1
    42    22    39 1
    43    23    40 1
    44    23    41 1
    45    24    42 1
    46    24    43 1
@<TRIPOS>SUBSTRUCTURE
     1 8FK         1 TEMP              0 ****  ****    0 ROOT
