@<TRIPOS>MOLECULE
molecule
   44    45     1     0     0
SMALL
bcc


@<TRIPOS>ATOM
      1 C4'          0.0000     0.0000     0.0000 ca         1 8FL       0.695200
      2 C5'          1.3970     0.0000     0.0000 ca         1 8FL      -0.430900
      3 C6'          2.0510     0.0000     1.2160 ca         1 8FL       0.462200
      4 N1'          1.3400     0.0010     2.3340 nb         1 8FL      -0.762000
      5 N3'         -0.6430     0.0020     1.1640 nb         1 8FL      -0.783000
      6 C2'          0.0220     0.0010     2.3010 ca         1 8FL       0.609300
      7 CM2         -0.7440     0.0030     3.5990 c3         1 8FL      -0.101400
      8 C7           5.3110     4.4970    -2.9070 c3         1 8FL       0.233400
      9 C7'          2.1690    -0.0020    -1.2930 c3         1 8FL       0.326100
     10 C4           3.2170     2.2520    -1.5280 c2         1 8FL       0.078800
     11 C5           3.2310     3.4640    -2.0380 c2         1 8FL      -0.017600
     12 C2           1.1910     1.8820    -2.7580 c3         1 8FL       0.546400
     13 N4'         -0.7040     0.0060    -1.1930 nv         1 8FL      -1.063500
     14 N3           2.2140     1.3590    -1.8360 nh         1 8FL      -0.718400
     15 O3B         10.5780     8.1650    -2.0310 o          1 8FL      -0.859167
     16 O1A          8.3040     4.5020    -3.8080 o          1 8FL      -0.858000
     17 OC2          1.1590     1.1230    -3.9680 oh         1 8FL      -0.625800
     18 O2B         10.0310     8.3360    -4.5960 o          1 8FL      -0.859167
     19 O1B         10.8620     6.1850    -3.5700 o          1 8FL      -0.859167
     20 O2A          7.0150     6.2520    -5.0920 o          1 8FL      -0.858000
     21 O7           6.2880     5.5140    -2.6750 os         1 8FL      -0.606200
     22 O3A          8.5020     6.8900    -3.0190 os         1 8FL      -0.716800
     23 PB          10.0120     7.3680    -3.3100 p5         1 8FL       1.313900
     24 PA           7.5440     5.7630    -3.6520 p5         1 8FL       1.428800
     25 S1           1.7910     3.5840    -3.0720 ss         1 8FL      -0.384700
     26 H1           3.1340    -0.0000     1.2560 h4         1 8FL       0.021100
     27 H2           3.9860     1.9290     0.4310 hc         1 8FL       0.051033
     28 H3           5.1890     2.4580    -0.7530 hc         1 8FL       0.051033
     29 H4           4.5840     0.7960    -0.7890 hc         1 8FL       0.051033
     30 H5          -1.4910    -0.7820     3.5780 hc         1 8FL       0.036367
     31 H6          -0.0610    -0.1700     4.4210 hc         1 8FL       0.036367
     32 H7          -1.2310     0.9620     3.7300 hc         1 8FL       0.036367
     33 H8           5.7940     3.5270    -2.9140 h1         1 8FL       0.024700
     34 H9           4.8310     4.6680    -3.8620 h1         1 8FL       0.024700
     35 H10          3.7790     5.5060    -1.7880 hc         1 8FL       0.053700
     36 H11          4.7420     4.3650    -0.8390 hc         1 8FL       0.053700
     37 H12          3.1780    -0.3520    -1.1110 h1         1 8FL       0.048200
     38 H13          1.6820    -0.6580    -2.0040 h1         1 8FL       0.048200
     39 H14          0.2190     1.9000    -2.2800 h3         1 8FL       0.062700
     40 H15         -0.6560    -0.7840    -1.8050 hn         1 8FL       0.426800
     41 H16         -1.3110     0.7710    -1.4110 hn         1 8FL       0.426800
     42 H18          0.8550     1.6700    -4.6740 ho         1 8FL       0.415000
     43 C6           4.2620     4.5360    -1.7950 c3         1 8FL      -0.011200
     44 CM4          4.3210     1.8290    -0.5940 c3         1 8FL      -0.044900
@<TRIPOS>BOND
     1    44    10 1
     2    10    11 2
     3    10    14 1
     4    43    11 1
     5    43     8 1
     6     9    14 1
     7     9     2 1
     8     3     4 ar
     9     3     2 ar
    10    11    25 1
    11    14    12 1
    12    19    23 1
    13    21     8 1
    14    21    24 1
    15     4     6 ar
    16     2     1 ar
    17    12    25 1
    18    12    17 1
    19    16    24 1
    20    24    22 1
    21    24    20 1
    22    15    23 1
    23    23    22 1
    24    23    18 1
    25     6     7 1
    26     6     5 ar
    27     1     5 ar
    28     1    13 1
    29     3    26 1
    30    44    27 1
    31    44    28 1
    32    44    29 1
    33     7    30 1
    34     7    31 1
    35     7    32 1
    36     8    33 1
    37     8    34 1
    38    43    35 1
    39    43    36 1
    40     9    37 1
    41     9    38 1
    42    12    39 1
    43    13    40 1
    44    13    41 1
    45    17    42 1
@<TRIPOS>SUBSTRUCTURE
     1 8FL         1 TEMP              0 ****  ****    0 ROOT
