@<TRIPOS>MOLECULE
8FQ
   61    64     1     0     0
SMALL
bcc


@<TRIPOS>ATOM
      1 C27          0.0000     0.0000     0.0000 ca         1 8FQ      -0.088000
      2 C33          8.1220    -4.9890     2.4190 ca         1 8FQ      -0.034000
      3 C28          1.3830     0.0000     0.0000 ca         1 8FQ      -0.108000
      4 C26         -0.6990     0.0020     1.1950 ca         1 8FQ      -0.069000
      5 C32          8.2180    -4.1400     1.3370 ca         1 8FQ      -0.151000
      6 C34          7.1820    -4.7590     3.4130 ca         1 8FQ      -0.262000
      7 C20          1.3730     0.0010     2.4190 ca         1 8FQ      -0.096600
      8 C19          2.0820     0.0000     1.2030 ca         1 8FQ      -0.063600
      9 C25         -0.0200     0.0020     2.3960 ca         1 8FQ      -0.110300
     10 C4           6.4130    -2.8050     2.2380 ca         1 8FQ       0.022400
     11 C31          7.3680    -3.0450     1.2370 ca         1 8FQ      -0.218200
     12 C3           6.3310    -3.6740     3.3350 ca         1 8FQ       0.230100
     13 C6           6.2020    -1.2340     0.7520 cc         1 8FQ       0.156800
     14 C21          1.8140     0.0020     3.8270 c          1 8FQ       0.616100
     15 C17          3.5620    -0.0010     1.2050 c          1 8FQ       0.549700
     16 C13          6.2830     6.1780     0.3860 c2         1 8FQ       0.402200
     17 C24         -0.4710     0.0030     3.8350 c3         1 8FQ       0.108300
     18 C14          5.8860     7.4050    -0.3940 c3         1 8FQ       0.149600
     19 C1           5.3800    -4.3880     5.3940 c3         1 8FQ       0.236700
     20 C9           6.2120     1.2460     0.7600 c3         1 8FQ      -0.062400
     21 C11          6.3190     3.7410     0.6890 c3         1 8FQ       0.172800
     22 C7           5.7010    -0.0030     0.0390 c3         1 8FQ       0.060400
     23 N5           5.7380    -1.6820     1.8810 nd         1 8FQ      -0.412100
     24 N15          6.9540     6.2990     1.4850 n2         1 8FQ      -0.756100
     25 N29          7.2110    -2.0340     0.3090 na         1 8FQ       0.302700
     26 N23          0.7500     0.0030     4.6490 ns         1 8FQ      -0.218900
     27 N16          4.2360    -0.0020     0.0380 ns         1 8FQ      -0.219900
     28 N12          5.9330     4.9340    -0.0690 nu         1 8FQ      -0.470200
     29 O22          2.9740     0.0020     4.1930 o          1 8FQ      -0.588500
     30 O18          4.1690    -0.0010     2.2580 o          1 8FQ      -0.508100
     31 O2           5.4130    -3.4540     4.3120 os         1 8FQ      -0.271900
     32 H1          -0.5390    -0.0000    -0.9400 ha         1 8FQ       0.105000
     33 H2           8.7840    -5.8430     2.4920 ha         1 8FQ       0.097000
     34 H3           1.9240    -0.0020    -0.9390 ha         1 8FQ       0.104000
     35 H4          -1.7820     0.0020     1.1880 ha         1 8FQ       0.104000
     36 H5           8.9550    -4.3260     0.5650 ha         1 8FQ       0.101000
     37 H6           7.1170    -5.4340     4.2580 ha         1 8FQ       0.123000
     38 H7          -1.0530     0.8940     4.0410 h1         1 8FQ       0.020200
     39 H8           4.8060     7.4490    -0.4720 h1         1 8FQ       0.019200
     40 H9           6.3190     7.3580    -1.3860 h1         1 8FQ       0.019200
     41 H11          8.5410    -0.9280    -0.8660 h1         1 8FQ       0.019033
     42 H12          7.3130    -1.8260    -1.7690 h1         1 8FQ       0.019033
     43 H13          8.6750    -2.6840    -1.0360 h1         1 8FQ       0.019033
     44 H14          4.6070    -4.1010     6.0950 h1         1 8FQ      -0.004300
     45 H15          6.3400    -4.3930     5.8960 h1         1 8FQ      -0.004300
     46 H16          5.1700    -5.3790     5.0090 h1         1 8FQ      -0.004300
     47 H17          4.7290     2.5360    -0.1100 hc         1 8FQ       0.010700
     48 H18          6.2420     2.4450    -1.0230 hc         1 8FQ       0.010700
     49 H19          5.7790     1.2930     1.7520 hc         1 8FQ       0.054700
     50 H20          7.2910     1.2020     0.8390 hc         1 8FQ       0.054700
     51 H21          5.8870     3.7880     1.6810 h1         1 8FQ       0.031200
     52 H22          7.3990     3.6970     0.7670 h1         1 8FQ       0.031200
     53 H23          6.0630    -0.0050    -0.9820 h1         1 8FQ       0.018700
     54 H24          7.2100     7.2070     1.8180 hn         1 8FQ       0.340400
     55 H25          3.7370    -0.0500    -0.8280 hn         1 8FQ       0.169500
     56 H26          5.4110     4.8400    -0.9180 hn         1 8FQ       0.281800
     57 F1           6.3530     8.5470     0.2650 f          1 8FQ      -0.219300
     58 H27         -1.0540    -0.8860     4.0420 h1         1 8FQ       0.020200
     59 H10          0.7850     0.0040     5.6490 hn         1 8FQ       0.203500
     60 C30          7.9860    -1.8570    -0.9200 c3         1 8FQ      -0.000400
     61 C10          5.8090     2.4920    -0.0310 c3         1 8FQ      -0.042400
@<TRIPOS>BOND
     1     1     3 ar  
     2     1     4 ar  
     3     1    32 1   
     4     2     5 ar  
     5     2     6 ar  
     6     2    33 1   
     7     3     8 ar  
     8     3    34 1   
     9     4     9 ar  
    10     4    35 1   
    11     5    11 ar  
    12     5    36 1   
    13     6    12 ar  
    14     6    37 1   
    15     7     8 ar  
    16     7     9 ar  
    17     7    14 1   
    18     8    15 1   
    19     9    17 1   
    20    10    11 ar  
    21    10    12 ar  
    22    10    23 1   
    23    11    25 1   
    24    12    31 1   
    25    13    22 1   
    26    13    23 2   
    27    13    25 1   
    28    14    26 1   
    29    14    29 2   
    30    15    27 1   
    31    15    30 2   
    32    16    18 1   
    33    16    24 2   
    34    16    28 1   
    35    17    26 1   
    36    17    38 1   
    37    17    58 1   
    38    18    39 1   
    39    18    40 1   
    40    18    57 1   
    41    19    31 1   
    42    19    44 1   
    43    19    45 1   
    44    19    46 1   
    45    20    22 1   
    46    20    49 1   
    47    20    50 1   
    48    20    61 1   
    49    21    28 1   
    50    21    51 1   
    51    21    52 1   
    52    21    61 1   
    53    22    27 1   
    54    22    53 1   
    55    24    54 1   
    56    25    60 1   
    57    26    59 1   
    58    27    55 1   
    59    28    56 1   
    60    41    60 1   
    61    42    60 1   
    62    43    60 1   
    63    47    61 1   
    64    48    61 1   
@<TRIPOS>SUBSTRUCTURE
     1 8FQ         1 TEMP              0 ****  ****    0 ROOT
