@<TRIPOS>MOLECULE
8FR
   46    49     1     0     0
SMALL
bcc


@<TRIPOS>ATOM
      1 C4           0.0000     0.0000     0.0000 ca         1 8FR       0.460600
      2 C5           1.4160     0.0000     0.0000 ca         1 8FR      -0.318600
      3 C6           2.0880     0.0000     1.2480 ca         1 8FR       0.562200
      4 N1           1.3600    -0.0010     2.3540 nb         1 8FR      -0.747000
      5 N3          -0.6460    -0.0010     1.1760 nb         1 8FR      -0.733000
      6 C2           0.0300    -0.0010     2.3090 ca         1 8FR       0.733900
      7 CAA          2.1080     0.0010    -1.2160 ca         1 8FR      -0.058000
      8 CAB          1.4080     0.0010    -2.3890 ca         1 8FR      -0.055600
      9 CAC          0.0170     0.0010    -2.3900 ca         1 8FR      -0.048000
     10 CAD         -0.6870    -0.0050    -1.2210 ca         1 8FR      -0.161300
     11 CAM          4.1130    -0.0000     2.5540 cc         1 8FR       0.353200
     12 CAN          3.5100     0.0050     3.7640 cd         1 8FR      -0.454600
     13 CAP          5.6850     0.0050     4.0380 cd         1 8FR       0.251400
     14 CAT         -0.2770     1.1310     4.3460 c3         1 8FR       0.175300
     15 CAU         -0.9650     1.0170     5.7080 c3         1 8FR      -0.091900
     16 CAV         -2.4830     1.0110     5.5100 c3         1 8FR      -0.012500
     17 CAW         -2.8640    -0.1510     4.5860 c3         1 8FR      -0.091900
     18 CAX         -2.1220    -0.0020     3.2570 c3         1 8FR       0.175300
     19 NAL          3.4660    -0.0010     1.3090 nu         1 8FR      -0.291600
     20 NAO          4.5110     0.0070     4.7040 na         1 8FR       0.284100
     21 NAQ          5.4420    -0.0000     2.7550 nc         1 8FR      -0.622000
     22 NAS         -0.6730    -0.0030     3.5000 nh         1 8FR      -0.454300
     23 NAY         -3.1480     0.8420     6.8090 nz         1 8FR       0.061400
     24 Cl           2.2660     0.0010    -3.8970 cl         1 8FR       0.006600
     25 H1           3.1910     0.0010    -1.2270 ha         1 8FR       0.119000
     26 H2          -0.5160     0.0010    -3.3330 ha         1 8FR       0.121000
     27 H3          -1.7700    -0.0050    -1.2370 ha         1 8FR       0.123000
     28 H4           2.4440     0.0060     3.9560 h4         1 8FR       0.202000
     29 H5           6.6680     0.0060     4.4930 h5         1 8FR       0.030100
     30 H6           3.9830     0.9860     6.4760 h1         1 8FR       0.021700
     31 H7           3.6170    -0.7440     6.4400 h1         1 8FR       0.021700
     32 H8           5.2880    -0.1970     6.6360 h1         1 8FR       0.021700
     33 H9          -0.5750     2.0570     3.8690 h1         1 8FR       0.044450
     34 H10          0.7970     1.1190     4.4830 h1         1 8FR       0.044450
     35 H11         -0.6610     0.0960     6.1900 hc         1 8FR       0.046950
     36 H12         -0.6860     1.8630     6.3250 hc         1 8FR       0.046950
     37 H13         -2.7920     1.9460     5.0580 hx         1 8FR       0.076700
     38 H14         -3.2420     0.8360     4.3480 hc         1 8FR       0.046950
     39 H15         -3.7650    -0.7430     4.6920 hc         1 8FR       0.046950
     40 H16         -2.3770    -0.8310     2.6080 h1         1 8FR       0.044450
     41 H17         -2.4070     0.9320     2.7880 h1         1 8FR       0.044450
     42 H18          4.0040    -0.0000     0.4650 hn         1 8FR       0.297800
     43 H19         -4.1400     0.8700     6.6820 hn         1 8FR       0.227133
     44 H20         -2.8700     1.5810     7.4240 hn         1 8FR       0.227133
     45 CAR          4.3390     0.0140     6.1590 c3         1 8FR      -0.002400
     46 HAY3        -2.8860    -0.0390     7.2060 hn         1 8FR       0.227133
@<TRIPOS>BOND
     1     1     2 ar  
     2     1     5 ar  
     3     1    10 ar  
     4     2     3 ar  
     5     2     7 ar  
     6     3     4 ar  
     7     3    19 1   
     8     4     6 ar  
     9     5     6 ar  
    10     6    22 1   
    11     7     8 ar  
    12     7    25 1   
    13     8     9 ar  
    14     8    24 1   
    15     9    10 ar  
    16     9    26 1   
    17    10    27 1   
    18    11    12 2   
    19    11    19 1   
    20    11    21 1   
    21    12    20 1   
    22    12    28 1   
    23    13    20 1   
    24    13    21 2   
    25    13    29 1   
    26    14    15 1   
    27    14    22 1   
    28    14    33 1   
    29    14    34 1   
    30    15    16 1   
    31    15    35 1   
    32    15    36 1   
    33    16    17 1   
    34    16    23 1   
    35    16    37 1   
    36    17    18 1   
    37    17    38 1   
    38    17    39 1   
    39    18    22 1   
    40    18    40 1   
    41    18    41 1   
    42    19    42 1   
    43    20    45 1   
    44    23    43 1   
    45    23    44 1   
    46    23    46 1   
    47    30    45 1   
    48    31    45 1   
    49    32    45 1   
@<TRIPOS>SUBSTRUCTURE
     1 8FR         1 TEMP              0 ****  ****    0 ROOT
