@<TRIPOS>MOLECULE
molecule
   14    14     1     0     0
SMALL
bcc


@<TRIPOS>ATOM
      1 FAE          0.0000     0.0000     0.0000 f          1 8FS      -0.123900
      2 CAF          1.3510     0.0000     0.0000 ca         1 8FS       0.179900
      3 CAB          2.0440     0.0000     1.1970 ca         1 8FS      -0.213000
      4 CAC          3.4290     0.0000     1.1970 ca         1 8FS       0.165900
      5 FAA          4.1010    -0.0010     2.3690 f          1 8FS      -0.131900
      6 CAD          4.1280     0.0000    -0.0010 ca         1 8FS      -0.186000
      7 CAH          3.4480     0.0010    -1.2000 ca         1 8FS      -0.059000
      8 CAG          2.0520    -0.0050    -1.2090 ca         1 8FS      -0.024000
      9 CAJ          1.3410    -0.0050    -2.4520 cg         1 8FS      -0.132000
     10 CAI          0.7620     0.0150    -3.4730 c1         1 8FS      -0.112500
     11 H1           1.5040     0.0000     2.1350 ha         1 8FS       0.163000
     12 H2           5.2110     0.0000     0.0040 ha         1 8FS       0.152000
     13 H3           3.9970     0.0010    -2.1340 ha         1 8FS       0.151000
     14 H4           0.2300     0.0150    -4.4160 ha         1 8FS       0.171500
@<TRIPOS>BOND
     1    10     9 3   
     2     7     6 ar  
     3     7     8 ar  
     4     9     8 1   
     5     6     4 ar  
     6     8     2 ar  
     7     4     5 1   
     8     4     3 ar  
     9     2     3 ar  
    10     2     1 1   
    11     3    11 1   
    12     6    12 1   
    13     7    13 1   
    14    10    14 1   
@<TRIPOS>SUBSTRUCTURE
     1 8FS         1 TEMP              0 ****  ****    0 ROOT
