@<TRIPOS>MOLECULE
molecule
   67    70     1     0     0
SMALL
bcc


@<TRIPOS>ATOM
      1 C7           0.0000     0.0000     0.0000 ca         1 8FT      -0.113000
      2 C29          8.1300     5.4410     0.9540 ca         1 8FT      -0.072000
      3 C8           1.3830     0.0000     0.0000 ca         1 8FT      -0.114000
      4 C6          -0.6980     0.0000     1.1960 ca         1 8FT      -0.097000
      5 C30          8.2230     4.1250     1.3520 ca         1 8FT      -0.169000
      6 C28          7.1910     5.8260     0.0080 ca         1 8FT      -0.255000
      7 C34          1.3730    -0.0000     2.4190 ca         1 8FT      -0.097600
      8 C9           2.0830     0.0000     1.2030 ca         1 8FT      -0.075600
      9 C5          -0.0190    -0.0010     2.3970 ca         1 8FT      -0.101300
     10 C24          6.4190     3.5520    -0.1530 ca         1 8FT       0.067400
     11 C31          7.3720     3.1740     0.8050 ca         1 8FT      -0.049200
     12 C25          6.3390     4.8930    -0.5530 ca         1 8FT       0.203100
     13 C22          6.2040     1.4130     0.1610 cc         1 8FT       0.390800
     14 C35          1.8160    -0.0010     3.8270 c          1 8FT       0.701100
     15 C10          3.5620    -0.0010     1.2040 c          1 8FT       0.656700
     16 C19          6.2780    -4.8640    -3.7950 c2         1 8FT       0.594200
     17 C4          -0.4700    -0.0000     3.8370 c3         1 8FT       0.145300
     18 C20          5.8790    -6.3160    -3.8610 c3         1 8FT       0.150600
     19 C1           0.8220    -1.4430     6.6220 c3         1 8FT      -0.117100
     20 C27          5.3920     6.6620    -1.8280 c3         1 8FT       0.125700
     21 C15          6.2120    -0.6120    -1.2700 c3         1 8FT      -0.089400
     22 C17          6.3170    -2.6960    -2.6430 c3         1 8FT       0.229800
     23 C13          5.7010    -0.0020     0.0380 c3         1 8FT       0.128400
     24 N23          5.7430     2.4290    -0.5070 nd         1 8FT      -0.577100
     25 N21          6.9510    -4.3340    -4.7640 n2         1 8FT      -0.859100
     26 N32          7.2130     1.8130     0.9840 na         1 8FT      -0.143300
     27 N3           0.7520    -0.0000     4.6490 n          1 8FT      -0.502800
     28 N12          4.2360    -0.0020     0.0370 ns         1 8FT      -0.574900
     29 N18          5.9280    -4.1070    -2.7080 nu         1 8FT      -0.934200
     30 O36          2.9760    -0.0010     4.1910 o          1 8FT      -0.571500
     31 O11          4.1690    -0.0010     2.2570 o          1 8FT      -0.550100
     32 O26          5.4220     5.2760    -1.4790 os         1 8FT      -0.309900
     33 H1          -0.5400    -0.0000    -0.9390 ha         1 8FT       0.139000
     34 H2           8.7920     6.1820     1.3850 ha         1 8FT       0.132000
     35 H3           1.9230    -0.0000    -0.9390 ha         1 8FT       0.134000
     36 H4          -1.7810     0.0000     1.1890 ha         1 8FT       0.135000
     37 H5           8.9590     3.8340     2.0920 ha         1 8FT       0.128000
     38 H6           7.1280     6.8640    -0.2970 ha         1 8FT       0.137000
     39 H7          -1.0520    -0.8900     4.0430 h1         1 8FT       0.058700
     40 H8          -1.0520     0.8900     4.0430 h1         1 8FT       0.058700
     41 H9           4.7990    -6.3960    -3.8220 h1         1 8FT       0.052700
     42 H10          6.3110    -6.8480    -3.0220 h1         1 8FT       0.052700
     43 H12          1.5640    -2.0100     6.0730 hc         1 8FT       0.043033
     44 H13         -0.1530    -1.8950     6.4830 hc         1 8FT       0.043033
     45 H14          1.0730    -1.4440     7.6760 hc         1 8FT       0.043033
     46 H15          9.0390     1.0440     1.6550 h1         1 8FT       0.054367
     47 H16          7.6700    -0.0700     1.7730 h1         1 8FT       0.054367
     48 H17          7.8180     1.2740     2.9130 h1         1 8FT       0.054367
     49 H18          6.3530     6.9540    -2.2350 h1         1 8FT       0.041367
     50 H19          5.1790     7.2530    -0.9450 h1         1 8FT       0.041367
     51 H20          4.6200     6.8310    -2.5700 h1         1 8FT       0.041367
     52 H21          6.2380    -2.6170    -0.4970 hc         1 8FT       0.052200
     53 H22          4.7270    -2.1660    -1.2980 hc         1 8FT       0.052200
     54 H23          7.2910    -0.5330    -1.3080 hc         1 8FT       0.064700
     55 H24          5.7800    -0.0810    -2.1090 hc         1 8FT       0.064700
     56 H25          1.7000     0.5100     6.4440 h1         1 8FT       0.057700
     57 H26         -0.0680     0.5090     6.5060 h1         1 8FT       0.057700
     58 H27          7.3960    -2.6170    -2.6820 h1         1 8FT       0.043700
     59 H28          5.8850    -2.1640    -3.4830 h1         1 8FT       0.043700
     60 H29          6.0620    -0.5880     0.8750 h1         1 8FT       0.086700
     61 H30          7.2160    -3.3700    -4.7200 hn         1 8FT       0.396400
     62 H31          3.7360     0.0220    -0.8300 hn         1 8FT       0.322500
     63 H32          5.4210    -4.5220    -1.9520 hn         1 8FT       0.427800
     64 F1           6.3460    -6.8740    -5.0570 f          1 8FT      -0.215300
     65 C2           0.8030    -0.0010     6.1140 c3         1 8FT       0.135000
     66 C33          7.9850     0.9600     1.8900 c3         1 8FT       0.040600
     67 C16          5.8060    -2.0860    -1.3360 c3         1 8FT      -0.097400
@<TRIPOS>BOND
     1     1     4 ar  
     2     1     3 ar  
     3     4     9 ar  
     4     3     8 ar  
     5     9    17 1   
     6     9     7 ar  
     7    66    26 1   
     8    17    27 1   
     9     8     7 ar  
    10     8    15 1   
    11     7    14 1   
    12    28    15 1   
    13    28    23 1   
    14     5    11 ar  
    15     5     2 ar  
    16    26    11 1   
    17    26    13 1   
    18    15    31 2   
    19    27    14 1   
    20    27    65 1   
    21    11    10 ar  
    22    14    30 2   
    23    21    23 1   
    24    21    67 1   
    25     2     6 ar  
    26    23    13 1   
    27    13    24 2   
    28    19    65 1   
    29    18    16 1   
    30    22    67 1   
    31    22    29 1   
    32    10    24 1   
    33    10    12 ar  
    34     6    12 ar  
    35    12    32 1   
    36    16    29 1   
    37    16    25 2   
    38    32    20 1   
    39     1    33 1   
    40     2    34 1   
    41     3    35 1   
    42     4    36 1   
    43     5    37 1   
    44     6    38 1   
    45    17    39 1   
    46    17    40 1   
    47    18    41 1   
    48    18    42 1   
    49    19    43 1   
    50    19    44 1   
    51    19    45 1   
    52    66    46 1   
    53    66    47 1   
    54    66    48 1   
    55    20    49 1   
    56    20    50 1   
    57    20    51 1   
    58    67    52 1   
    59    67    53 1   
    60    21    54 1   
    61    21    55 1   
    62    65    56 1   
    63    65    57 1   
    64    22    58 1   
    65    22    59 1   
    66    23    60 1   
    67    25    61 1   
    68    28    62 1   
    69    29    63 1   
    70    18    64 1   
@<TRIPOS>SUBSTRUCTURE
     1 8FT         1 TEMP              0 ****  ****    0 ROOT
