@<TRIPOS>MOLECULE
8FT
   67    70     1     0     0
SMALL
bcc


@<TRIPOS>ATOM
      1 C7           0.0000     0.0000     0.0000 ca         1 8FT      -0.085000
      2 C29          8.1300     5.4410     0.9540 ca         1 8FT      -0.041000
      3 C8           1.3830     0.0000     0.0000 ca         1 8FT      -0.098000
      4 C6          -0.6980     0.0000     1.1960 ca         1 8FT      -0.064000
      5 C30          8.2230     4.1250     1.3520 ca         1 8FT      -0.136000
      6 C28          7.1910     5.8260     0.0080 ca         1 8FT      -0.250000
      7 C34          1.3730    -0.0000     2.4190 ca         1 8FT      -0.101600
      8 C9           2.0830     0.0000     1.2030 ca         1 8FT      -0.071600
      9 C5          -0.0190    -0.0010     2.3970 ca         1 8FT      -0.111300
     10 C24          6.4190     3.5520    -0.1530 ca         1 8FT       0.033400
     11 C31          7.3720     3.1740     0.8050 ca         1 8FT      -0.219200
     12 C25          6.3390     4.8930    -0.5530 ca         1 8FT       0.216100
     13 C22          6.2040     1.4130     0.1610 cc         1 8FT       0.183800
     14 C35          1.8160    -0.0010     3.8270 c          1 8FT       0.636100
     15 C10          3.5620    -0.0010     1.2040 c          1 8FT       0.571700
     16 C19          6.2780    -4.8640    -3.7950 c2         1 8FT       0.404200
     17 C4          -0.4700    -0.0000     3.8370 c3         1 8FT       0.119300
     18 C20          5.8790    -6.3160    -3.8610 c3         1 8FT       0.149600
     19 C1           0.8220    -1.4430     6.6220 c3         1 8FT      -0.021100
     20 C27          5.3920     6.6620    -1.8280 c3         1 8FT       0.238700
     21 C15          6.2120    -0.6120    -1.2700 c3         1 8FT      -0.033400
     22 C17          6.3170    -2.6960    -2.6430 c3         1 8FT       0.172800
     23 C13          5.7010    -0.0020     0.0380 c3         1 8FT       0.034400
     24 N23          5.7430     2.4290    -0.5070 nd         1 8FT      -0.495100
     25 N21          6.9510    -4.3340    -4.7640 n2         1 8FT      -0.759100
     26 N32          7.2130     1.8130     0.9840 na         1 8FT       0.331700
     27 N3           0.7520    -0.0000     4.6490 n          1 8FT      -0.181800
     28 N12          4.2360    -0.0020     0.0370 ns         1 8FT      -0.189900
     29 N18          5.9280    -4.1070    -2.7080 nu         1 8FT      -0.471200
     30 O36          2.9760    -0.0010     4.1910 o          1 8FT      -0.608500
     31 O11          4.1690    -0.0010     2.2570 o          1 8FT      -0.593100
     32 O26          5.4220     5.2760    -1.4790 os         1 8FT      -0.288900
     33 H1          -0.5400    -0.0000    -0.9390 ha         1 8FT       0.108000
     34 H2           8.7920     6.1820     1.3850 ha         1 8FT       0.099000
     35 H3           1.9230    -0.0000    -0.9390 ha         1 8FT       0.110000
     36 H4          -1.7810     0.0000     1.1890 ha         1 8FT       0.105000
     37 H5           8.9590     3.8340     2.0920 ha         1 8FT       0.104000
     38 H6           7.1280     6.8640    -0.2970 ha         1 8FT       0.123000
     39 H7          -1.0520     0.8900     4.0430 h1         1 8FT       0.023200
     40 H8          -1.0520    -0.8900     4.0430 h1         1 8FT       0.023200
     41 H9           6.3110    -6.8480    -3.0220 h1         1 8FT       0.020200
     42 H10          4.7990    -6.3960    -3.8220 h1         1 8FT       0.020200
     43 H12          1.0720    -1.4510     7.6760 hc         1 8FT       0.010033
     44 H13          1.5570    -2.0190     6.0720 hc         1 8FT       0.010033
     45 H14         -0.1590    -1.8810     6.4800 hc         1 8FT       0.010033
     46 H15          7.9040     1.3400     2.9010 h1         1 8FT       0.025700
     47 H16          9.0250     0.9590     1.5870 h1         1 8FT       0.025700
     48 H17          7.5970    -0.0510     1.8530 h1         1 8FT       0.025700
     49 H18          6.3570     6.9570    -2.2220 h1         1 8FT      -0.002967
     50 H19          5.1660     7.2520    -0.9480 h1         1 8FT      -0.002967
     51 H20          4.6300     6.8290    -2.5800 h1         1 8FT      -0.002967
     52 H21          6.2380    -2.6170    -0.4970 hc         1 8FT       0.018200
     53 H22          4.7270    -2.1660    -1.2980 hc         1 8FT       0.018200
     54 H23          7.2910    -0.5330    -1.3080 hc         1 8FT       0.034200
     55 H24          5.7800    -0.0810    -2.1090 hc         1 8FT       0.034200
     56 H25         -0.0680     0.5090     6.5060 h1         1 8FT       0.025200
     57 H26          1.7000     0.5100     6.4440 h1         1 8FT       0.025200
     58 H27          7.3960    -2.6170    -2.6820 h1         1 8FT       0.027700
     59 H28          5.8850    -2.1640    -3.4830 h1         1 8FT       0.027700
     60 H29          6.0620    -0.5880     0.8750 h1         1 8FT       0.057700
     61 H30          7.2060    -4.8870    -5.5580 hn         1 8FT       0.341400
     62 H31          3.7360     0.0220    -0.8300 hn         1 8FT       0.186500
     63 H32          5.3950    -4.5140    -1.9650 hn         1 8FT       0.285800
     64 F1           6.3460    -6.8740    -5.0570 f          1 8FT      -0.219300
     65 C2           0.8030    -0.0010     6.1140 c3         1 8FT       0.089000
     66 C33          7.9850     0.9600     1.8900 c3         1 8FT      -0.009400
     67 C16          5.8060    -2.0860    -1.3360 c3         1 8FT      -0.047400
@<TRIPOS>BOND
     1     1     3 ar  
     2     1     4 ar  
     3     1    33 1   
     4     2     5 ar  
     5     2     6 ar  
     6     2    34 1   
     7     3     8 ar  
     8     3    35 1   
     9     4     9 ar  
    10     4    36 1   
    11     5    11 ar  
    12     5    37 1   
    13     6    12 ar  
    14     6    38 1   
    15     7     8 ar  
    16     7     9 ar  
    17     7    14 1   
    18     8    15 1   
    19     9    17 1   
    20    10    11 ar  
    21    10    12 ar  
    22    10    24 1   
    23    11    26 1   
    24    12    32 1   
    25    13    23 1   
    26    13    24 2   
    27    13    26 1   
    28    14    27 1   
    29    14    30 2   
    30    15    28 1   
    31    15    31 2   
    32    16    18 1   
    33    16    25 2   
    34    16    29 1   
    35    17    27 1   
    36    17    39 1   
    37    17    40 1   
    38    18    41 1   
    39    18    42 1   
    40    18    64 1   
    41    19    43 1   
    42    19    44 1   
    43    19    45 1   
    44    19    65 1   
    45    20    32 1   
    46    20    49 1   
    47    20    50 1   
    48    20    51 1   
    49    21    23 1   
    50    21    54 1   
    51    21    55 1   
    52    21    67 1   
    53    22    29 1   
    54    22    58 1   
    55    22    59 1   
    56    22    67 1   
    57    23    28 1   
    58    23    60 1   
    59    25    61 1   
    60    26    66 1   
    61    27    65 1   
    62    28    62 1   
    63    29    63 1   
    64    46    66 1   
    65    47    66 1   
    66    48    66 1   
    67    52    67 1   
    68    53    67 1   
    69    56    65 1   
    70    57    65 1   
@<TRIPOS>SUBSTRUCTURE
     1 8FT         1 TEMP              0 ****  ****    0 ROOT
