@<TRIPOS>MOLECULE
molecule
   47    50     1     0     0
SMALL
bcc


@<TRIPOS>ATOM
      1 C4           0.0000     0.0000     0.0000 ca         1 8FU       0.757200
      2 C5           1.4180     0.0000     0.0000 ca         1 8FU      -0.308600
      3 C6           2.0900     0.0000     1.2480 ca         1 8FU       0.469600
      4 N1           1.3620     0.0010     2.3720 nb         1 8FU      -0.760000
      5 N3          -0.6270     0.0070     1.1670 nb         1 8FU      -0.774000
      6 C2           0.0460     0.0010     2.3160 ca         1 8FU       0.701500
      7 CAA          2.1590     0.0010    -1.1850 ca         1 8FU      -0.086000
      8 CAB          3.5230     0.0000    -1.1260 ca         1 8FU       0.016400
      9 CAC          4.1860    -0.0000     0.1000 ca         1 8FU      -0.091000
     10 CAD          3.4920     0.0010     1.2730 ca         1 8FU      -0.170300
     11 CAM         -2.1090     0.0010    -1.1620 cc         1 8FU       0.571200
     12 CAN         -2.9150    -0.0050    -0.0140 cc         1 8FU      -0.334300
     13 CAO         -4.2080    -0.0080    -0.4140 cd         1 8FU      -0.068600
     14 CAR         -5.4160    -0.0140     0.4870 c3         1 8FU      -0.026800
     15 CAS         -0.7200     0.0010     3.5880 c          1 8FU       0.593600
     16 CAU          0.8670    -1.6310     4.4980 c3         1 8FU       0.104000
     17 CAV          0.5030    -3.0780     4.8500 c3         1 8FU       0.141500
     18 CAX         -1.4270    -2.3650     6.1330 c3         1 8FU       0.138800
     19 CAY         -1.1440    -0.8890     5.8340 c3         1 8FU       0.115000
     20 CAZ          1.7770    -3.9250     4.9030 c3         1 8FU      -0.088100
     21 NAL         -0.7080     0.0000    -1.1840 nu         1 8FU      -0.823600
     22 NAP         -4.2230    -0.0060    -1.7640 na         1 8FU      -0.039600
     23 NAQ         -2.8960    -0.0000    -2.2130 nd         1 8FU      -0.560800
     24 NAT         -0.3470    -0.8080     4.5990 n          1 8FU      -0.473800
     25 NAW         -0.1610    -3.1080     6.1600 n7         1 8FU      -0.818200
     26 OBA         -1.6830     0.7310     3.7170 o          1 8FU      -0.582100
     27 Cl           4.4450    -0.0000    -2.5970 cl         1 8FU      -0.099400
     28 H1           1.6550     0.0010    -2.1440 ha         1 8FU       0.142000
     29 H2           5.2700    -0.0000     0.1210 ha         1 8FU       0.151000
     30 H3           4.0200     0.0000     2.2190 ha         1 8FU       0.161000
     31 H4          -2.5650    -0.0690     1.0100 ha         1 8FU       0.210000
     32 H5          -6.3130     0.0820    -0.1120 hc         1 8FU       0.052367
     33 H6          -5.3530     0.8160     1.1800 hc         1 8FU       0.052367
     34 H7          -5.4490    -0.9450     1.0400 hc         1 8FU       0.052367
     35 H8           1.6130    -1.2650     5.1930 h1         1 8FU       0.073200
     36 H9           1.2510    -1.5890     3.4860 h1         1 8FU       0.073200
     37 H10         -0.1680    -3.4730     4.0980 h1         1 8FU       0.026700
     38 H11         -1.9160    -2.4500     7.0960 h1         1 8FU       0.040700
     39 H12         -2.0680    -2.7720     5.3600 h1         1 8FU       0.040700
     40 H13         -2.0790    -0.3600     5.6970 h1         1 8FU       0.069200
     41 H14         -0.5880    -0.4520     6.6540 h1         1 8FU       0.069200
     42 H15          1.5380    -4.9120     5.2800 hc         1 8FU       0.041367
     43 H16          2.1950    -4.0110     3.9070 hc         1 8FU       0.041367
     44 H17          2.4980    -3.4530     5.5580 hc         1 8FU       0.041367
     45 H18         -0.2210    -0.0150    -2.0580 hn         1 8FU       0.469800
     46 H19         -5.0390    -0.0080    -2.3430 hn         1 8FU       0.329700
     47 H20         -0.3360    -4.0580     6.4230 hn         1 8FU       0.355800
@<TRIPOS>BOND
     1    20    17 1
     2    25    17 1
     3    25    18 1
     4    16    17 1
     5    16    24 1
     6    18    19 1
     7    19    24 1
     8    24    15 1
     9    15    26 2
    10    15     6 1
    11     4     6 ar
    12     4     3 ar
    13    10     3 ar
    14    10     9 ar
    15     6     5 ar
    16     3     2 ar
    17     9     8 ar
    18     5     1 ar
    19     2     1 ar
    20     2     7 ar
    21     8     7 ar
    22     8    27 1
    23     1    21 1
    24    21    11 1
    25    12    11 1
    26    12    13 2
    27    11    23 2
    28    14    13 1
    29    13    22 1
    30    23    22 1
    31     7    28 1
    32     9    29 1
    33    10    30 1
    34    12    31 1
    35    14    32 1
    36    14    33 1
    37    14    34 1
    38    16    35 1
    39    16    36 1
    40    17    37 1
    41    18    38 1
    42    18    39 1
    43    19    40 1
    44    19    41 1
    45    20    42 1
    46    20    43 1
    47    20    44 1
    48    21    45 1
    49    22    46 1
    50    25    47 1
@<TRIPOS>SUBSTRUCTURE
     1 8FU         1 TEMP              0 ****  ****    0 ROOT
