@<TRIPOS>MOLECULE
8FU
   47    50     1     0     0
SMALL
bcc


@<TRIPOS>ATOM
      1 C4           0.0000     0.0000     0.0000 ca         1 8FU       0.535200
      2 C5           1.4180     0.0000     0.0000 ca         1 8FU      -0.302600
      3 C6           2.0900     0.0000     1.2480 ca         1 8FU       0.431600
      4 N1           1.3620     0.0010     2.3720 nb         1 8FU      -0.660000
      5 N3          -0.6270     0.0070     1.1670 nb         1 8FU      -0.660000
      6 C2           0.0460     0.0010     2.3160 ca         1 8FU       0.616500
      7 CAA          2.1590     0.0010    -1.1850 ca         1 8FU      -0.067000
      8 CAB          3.5230     0.0000    -1.1260 ca         1 8FU      -0.046600
      9 CAC          4.1860    -0.0000     0.1000 ca         1 8FU      -0.068000
     10 CAD          3.4920     0.0010     1.2730 ca         1 8FU      -0.145300
     11 CAM         -2.1090     0.0010    -1.1620 cc         1 8FU       0.431200
     12 CAN         -2.9150    -0.0050    -0.0140 cc         1 8FU      -0.333300
     13 CAO         -4.2080    -0.0080    -0.4140 cd         1 8FU      -0.244600
     14 CAR         -5.4160    -0.0140     0.4870 c3         1 8FU       0.101200
     15 CAS         -0.7200     0.0010     3.5880 c          1 8FU       0.503600
     16 CAU          0.8670    -1.6310     4.4980 c3         1 8FU       0.021000
     17 CAV          0.5030    -3.0780     4.8500 c3         1 8FU       0.100500
     18 CAX         -1.4270    -2.3650     6.1330 c3         1 8FU       0.130800
     19 CAY         -1.1440    -0.8890     5.8340 c3         1 8FU       0.051000
     20 CAZ          1.7770    -3.9250     4.9030 c3         1 8FU       0.010900
     21 NAL         -0.7080     0.0000    -1.1840 nu         1 8FU      -0.323600
     22 NAP         -4.2230    -0.0060    -1.7640 na         1 8FU       0.464400
     23 NAQ         -2.8960    -0.0000    -2.2130 nd         1 8FU      -0.709800
     24 NAT         -0.3470    -0.8080     4.5990 n          1 8FU      -0.128800
     25 NAW         -0.1610    -3.1080     6.1600 n7         1 8FU      -0.580200
     26 OBA         -1.6830     0.7310     3.7170 o          1 8FU      -0.632100
     27 Cl           4.4450    -0.0000    -2.5970 cl         1 8FU      -0.016400
     28 H1           1.6550     0.0010    -2.1440 ha         1 8FU       0.117000
     29 H2           5.2700    -0.0000     0.1210 ha         1 8FU       0.117000
     30 H3           4.0200     0.0000     2.2190 ha         1 8FU       0.125000
     31 H4          -2.5650    -0.0690     1.0100 ha         1 8FU       0.200000
     32 H5          -6.3130     0.0820    -0.1120 hc         1 8FU       0.011367
     33 H6          -5.3530     0.8160     1.1800 hc         1 8FU       0.011367
     34 H7          -5.4490    -0.9450     1.0400 hc         1 8FU       0.011367
     35 H8           1.6130    -1.2650     5.1930 h1         1 8FU       0.049700
     36 H9           1.2510    -1.5890     3.4860 h1         1 8FU       0.049700
     37 H10         -0.1680    -3.4730     4.0980 h1         1 8FU       0.008700
     38 H11         -1.9160    -2.4500     7.0960 h1         1 8FU       0.012200
     39 H12         -2.0680    -2.7720     5.3600 h1         1 8FU       0.012200
     40 H13         -2.0790    -0.3600     5.6970 h1         1 8FU       0.040200
     41 H14         -0.5880    -0.4520     6.6540 h1         1 8FU       0.040200
     42 H15          1.5380    -4.9120     5.2800 hc         1 8FU       0.007700
     43 H16          2.1950    -4.0110     3.9070 hc         1 8FU       0.007700
     44 H17          2.4980    -3.4530     5.5580 hc         1 8FU       0.007700
     45 H18         -0.2210    -0.0150    -2.0580 hn         1 8FU       0.291800
     46 H19         -5.0390    -0.0080    -2.3430 hn         1 8FU       0.144700
     47 H20         -0.3360    -4.0580     6.4230 hn         1 8FU       0.256800
@<TRIPOS>BOND
     1     1     2 ar  
     2     1     5 ar  
     3     1    21 1   
     4     2     3 ar  
     5     2     7 ar  
     6     3     4 ar  
     7     3    10 ar  
     8     4     6 ar  
     9     5     6 ar  
    10     6    15 1   
    11     7     8 ar  
    12     7    28 1   
    13     8     9 ar  
    14     8    27 1   
    15     9    10 ar  
    16     9    29 1   
    17    10    30 1   
    18    11    12 1   
    19    11    21 1   
    20    11    23 2   
    21    12    13 2   
    22    12    31 1   
    23    13    14 1   
    24    13    22 1   
    25    14    32 1   
    26    14    33 1   
    27    14    34 1   
    28    15    24 1   
    29    15    26 2   
    30    16    17 1   
    31    16    24 1   
    32    16    35 1   
    33    16    36 1   
    34    17    20 1   
    35    17    25 1   
    36    17    37 1   
    37    18    19 1   
    38    18    25 1   
    39    18    38 1   
    40    18    39 1   
    41    19    24 1   
    42    19    40 1   
    43    19    41 1   
    44    20    42 1   
    45    20    43 1   
    46    20    44 1   
    47    21    45 1   
    48    22    23 1   
    49    22    46 1   
    50    25    47 1   
@<TRIPOS>SUBSTRUCTURE
     1 8FU         1 TEMP              0 ****  ****    0 ROOT
