@<TRIPOS>MOLECULE
8FW
   52    55     1     0     0
SMALL
bcc


@<TRIPOS>ATOM
      1 C28          0.0000     0.0000     0.0000 ca         1 8FW      -0.089000
      2 C29          1.3880     0.0000     0.0000 ca         1 8FW      -0.119000
      3 C22         -4.5040    -0.5110     8.0330 ca         1 8FW      -0.093000
      4 C23         -3.2230    -0.4050     7.5360 ca         1 8FW      -0.083000
      5 C21         -5.2960     0.6190     8.1960 ca         1 8FW      -0.020000
      6 C27         -0.6980    -0.0010     1.1890 ca         1 8FW      -0.087000
      7 C30          2.0850     0.0000     1.1750 ca         1 8FW      -0.037000
      8 C15         -3.4900     1.9860     7.3490 ca         1 8FW      -0.131600
      9 C14         -2.7040     0.8530     7.1870 ca         1 8FW      -0.085600
     10 C20         -4.7980     1.8680     7.8580 ca         1 8FW      -0.234900
     11 C26         -0.0070    -0.0060     2.3930 ca         1 8FW      -0.273200
     12 C31          1.3980    -0.0000     2.3920 ca         1 8FW       0.065400
     13 C24          0.7500    -0.0140     4.4660 cc         1 8FW       0.185800
     14 C16         -3.3000     3.4400     7.1010 c          1 8FW       0.688100
     15 C12         -1.3270     0.9690     6.6540 c          1 8FW       0.566700
     16 C3           3.4720    -3.2250    10.5790 c2         1 8FW       0.447200
     17 C19         -5.3360     3.2410     7.8950 cc         1 8FW       0.546800
     18 C2           3.6180    -3.1610    12.0770 c3         1 8FW      -0.060400
     19 C8           1.6310    -1.2050     6.4560 c3         1 8FW      -0.031400
     20 C6           2.6150    -2.3250     8.4600 c3         1 8FW       0.172800
     21 C9           0.7940    -0.0190     5.9730 c3         1 8FW       0.036400
     22 N25         -0.3870    -0.0070     3.7200 na         1 8FW       0.274700
     23 N4           4.0200    -4.1920     9.9170 n2         1 8FW      -0.789100
     24 N32          1.7940    -0.0010     3.6910 nd         1 8FW      -0.507100
     25 N18         -4.4340     4.0730     7.4530 nd         1 8FW      -0.548100
     26 N11         -0.5680    -0.1340     6.5010 ns         1 8FW      -0.226900
     27 N5           2.7580    -2.2610     9.9170 nu         1 8FW      -0.476200
     28 O17         -2.2980     3.9650     6.6590 o          1 8FW      -0.422100
     29 O13         -0.8810     2.0600     6.3550 o          1 8FW      -0.587100
     30 H1          -0.5380     0.0000    -0.9400 ha         1 8FW       0.102000
     31 H2           1.9240     0.0000    -0.9410 ha         1 8FW       0.104000
     32 H3          -4.8970    -1.4850     8.3000 ha         1 8FW       0.112000
     33 H4          -2.6160    -1.2930     7.4140 ha         1 8FW       0.108000
     34 H5          -6.3020     0.5250     8.5870 ha         1 8FW       0.109000
     35 H6          -1.7820    -0.0010     1.1840 ha         1 8FW       0.099000
     36 H7           3.1680    -0.0000     1.1630 ha         1 8FW       0.110000
     37 H8          -6.0030     3.5400     8.6940 h4         1 8FW       0.004800
     38 H9           4.4660    -3.7610    12.3840 hc         1 8FW       0.014367
     39 H10          2.7180    -3.5410    12.5450 hc         1 8FW       0.014367
     40 H11          3.7750    -2.1320    12.3800 hc         1 8FW       0.014367
     41 H12          0.7990    -1.1760     8.4370 hc         1 8FW       0.016700
     42 H13          2.2710    -0.2130     8.2520 hc         1 8FW       0.016700
     43 H14          2.6110    -1.1670     5.9950 hc         1 8FW       0.038700
     44 H15          1.1390    -2.1300     6.1810 hc         1 8FW       0.038700
     45 H16          2.1230    -3.2490     8.1850 h1         1 8FW       0.027700
     46 H17          3.5950    -2.2870     7.9990 h1         1 8FW       0.027700
     47 H18          1.2410     0.9040     6.3230 h1         1 8FW       0.078700
     48 H19         -1.3170     0.1240     4.0650 hn         1 8FW       0.126700
     49 H20          4.5410    -4.8960    10.4000 hn         1 8FW       0.327400
     50 H22         -0.9440    -1.0340     6.7240 hn         1 8FW       0.185500
     51 H23          2.3480    -1.5040    10.4270 hn         1 8FW       0.286800
     52 C7           1.7790    -1.1380     7.9770 c3         1 8FW      -0.047400
@<TRIPOS>BOND
     1     1     2 ar  
     2     1     6 ar  
     3     1    30 1   
     4     2     7 ar  
     5     2    31 1   
     6     3     4 ar  
     7     3     5 ar  
     8     3    32 1   
     9     4     9 ar  
    10     4    33 1   
    11     5    10 ar  
    12     5    34 1   
    13     6    11 ar  
    14     6    35 1   
    15     7    12 ar  
    16     7    36 1   
    17     8     9 ar  
    18     8    10 ar  
    19     8    14 1   
    20     9    15 1   
    21    10    17 1   
    22    11    12 ar  
    23    11    22 1   
    24    12    24 1   
    25    13    21 1   
    26    13    22 1   
    27    13    24 2   
    28    14    25 1   
    29    14    28 2   
    30    15    26 1   
    31    15    29 2   
    32    16    18 1   
    33    16    23 2   
    34    16    27 1   
    35    17    25 2   
    36    17    37 1   
    37    18    38 1   
    38    18    39 1   
    39    18    40 1   
    40    19    21 1   
    41    19    43 1   
    42    19    44 1   
    43    19    52 1   
    44    20    27 1   
    45    20    45 1   
    46    20    46 1   
    47    20    52 1   
    48    21    26 1   
    49    21    47 1   
    50    22    48 1   
    51    23    49 1   
    52    26    50 1   
    53    27    51 1   
    54    41    52 1   
    55    42    52 1   
@<TRIPOS>SUBSTRUCTURE
     1 8FW         1 TEMP              0 ****  ****    0 ROOT
