@<TRIPOS>MOLECULE
molecule
   52    55     1     0     0
SMALL
bcc


@<TRIPOS>ATOM
      1 C28          0.0000     0.0000     0.0000 ca         1 8FW      -0.113000
      2 C29          1.3880     0.0000     0.0000 ca         1 8FW      -0.146000
      3 C22         -4.5040    -0.5110     8.0330 ca         1 8FW      -0.123000
      4 C23         -3.2230    -0.4050     7.5360 ca         1 8FW      -0.101000
      5 C21         -5.2960     0.6190     8.1960 ca         1 8FW      -0.056000
      6 C27         -0.6980    -0.0010     1.1890 ca         1 8FW      -0.127000
      7 C30          2.0850     0.0000     1.1750 ca         1 8FW      -0.069000
      8 C15         -3.4900     1.9860     7.3490 ca         1 8FW      -0.132600
      9 C14         -2.7040     0.8530     7.1870 ca         1 8FW      -0.088600
     10 C20         -4.7980     1.8680     7.8580 ca         1 8FW      -0.235900
     11 C26         -0.0070    -0.0060     2.3930 ca         1 8FW      -0.091200
     12 C31          1.3980    -0.0000     2.3920 ca         1 8FW       0.094400
     13 C24          0.7500    -0.0140     4.4660 cc         1 8FW       0.404800
     14 C16         -3.3000     3.4400     7.1010 c          1 8FW       0.682100
     15 C12         -1.3270     0.9690     6.6540 c          1 8FW       0.645700
     16 C3           3.4720    -3.2250    10.5790 c2         1 8FW       0.639200
     17 C19         -5.3360     3.2410     7.8950 cc         1 8FW       0.551800
     18 C2           3.6180    -3.1610    12.0770 c3         1 8FW      -0.121400
     19 C8           1.6310    -1.2050     6.4560 c3         1 8FW      -0.086400
     20 C6           2.6150    -2.3250     8.4600 c3         1 8FW       0.228800
     21 C9           0.7940    -0.0190     5.9730 c3         1 8FW       0.122400
     22 N25         -0.3870    -0.0070     3.7200 na         1 8FW      -0.251300
     23 N4           4.0200    -4.1920     9.9170 n2         1 8FW      -0.894100
     24 N32          1.7940    -0.0010     3.6910 nd         1 8FW      -0.602100
     25 N18         -4.4340     4.0730     7.4530 nd         1 8FW      -0.625100
     26 N11         -0.5680    -0.1340     6.5010 ns         1 8FW      -0.597900
     27 N5           2.7580    -2.2610     9.9170 nu         1 8FW      -0.935200
     28 O17         -2.2980     3.9650     6.6590 o          1 8FW      -0.393100
     29 O13         -0.8810     2.0600     6.3550 o          1 8FW      -0.545100
     30 H1          -0.5380     0.0000    -0.9400 ha         1 8FW       0.132000
     31 H2           1.9240     0.0000    -0.9410 ha         1 8FW       0.133000
     32 H3          -4.8970    -1.4850     8.3000 ha         1 8FW       0.145000
     33 H4          -2.6160    -1.2930     7.4140 ha         1 8FW       0.135000
     34 H5          -6.3020     0.5250     8.5870 ha         1 8FW       0.143000
     35 H6          -1.7820    -0.0010     1.1840 ha         1 8FW       0.126000
     36 H7           3.1680    -0.0000     1.1630 ha         1 8FW       0.142000
     37 H8          -6.0030     3.5400     8.6940 h4         1 8FW       0.060800
     38 H9           4.2110    -4.0000    12.4190 hc         1 8FW       0.056367
     39 H10          2.6380    -3.1990    12.5380 hc         1 8FW       0.056367
     40 H11          4.1100    -2.2350    12.3520 hc         1 8FW       0.056367
     41 H12          2.2710    -0.2130     8.2520 hc         1 8FW       0.051700
     42 H13          0.7990    -1.1760     8.4370 hc         1 8FW       0.051700
     43 H14          2.6110    -1.1670     5.9960 hc         1 8FW       0.068200
     44 H15          1.1390    -2.1300     6.1810 hc         1 8FW       0.068200
     45 H16          3.5950    -2.2870     7.9990 h1         1 8FW       0.042700
     46 H17          2.1230    -3.2490     8.1850 h1         1 8FW       0.042700
     47 H18          1.2410     0.9040     6.3230 h1         1 8FW       0.112700
     48 H19         -1.3170     0.1230     4.0650 hn         1 8FW       0.303700
     49 H20          3.9230    -4.2350     8.9220 hn         1 8FW       0.390400
     50 H22         -0.9450    -1.0340     6.7210 hn         1 8FW       0.317500
     51 H23          2.3350    -1.5130    10.4290 hn         1 8FW       0.427800
     52 C7           1.7790    -1.1380     7.9770 c3         1 8FW      -0.098400
@<TRIPOS>BOND
     1     3     5 ar  
     2     3     4 ar  
     3     5    10 ar  
     4     4     9 ar  
     5    10    17 1   
     6    10     8 ar  
     7    17    25 2   
     8     9     8 ar  
     9     9    15 1   
    10     8    14 1   
    11    25    14 1   
    12    26    15 1   
    13    26    21 1   
    14     7    12 ar  
    15     7     2 ar  
    16    14    28 2   
    17    24    12 1   
    18    24    13 2   
    19    15    29 2   
    20    12    11 ar  
    21    19    21 1   
    22    19    52 1   
    23     2     1 ar  
    24    21    13 1   
    25    13    22 1   
    26    18    16 1   
    27    20    52 1   
    28    20    27 1   
    29    11    22 1   
    30    11     6 ar  
    31     1     6 ar  
    32    27    16 1   
    33    16    23 2   
    34     1    30 1   
    35     2    31 1   
    36     3    32 1   
    37     4    33 1   
    38     5    34 1   
    39     6    35 1   
    40     7    36 1   
    41    17    37 1   
    42    18    38 1   
    43    18    39 1   
    44    18    40 1   
    45    52    41 1   
    46    52    42 1   
    47    19    43 1   
    48    19    44 1   
    49    20    45 1   
    50    20    46 1   
    51    21    47 1   
    52    22    48 1   
    53    23    49 1   
    54    26    50 1   
    55    27    51 1   
@<TRIPOS>SUBSTRUCTURE
     1 8FW         1 TEMP              0 ****  ****    0 ROOT
