@<TRIPOS>MOLECULE
molecule
   51    55     1     0     0
SMALL
bcc


@<TRIPOS>ATOM
      1 C4           0.0000     0.0000     0.0000 ca         1 8FX       0.757200
      2 C5           1.4180     0.0000     0.0000 ca         1 8FX      -0.308600
      3 C6           2.0900     0.0000     1.2480 ca         1 8FX       0.469600
      4 N1           1.3630    -0.0000     2.3720 nb         1 8FX      -0.759000
      5 N3          -0.6270     0.0050     1.1680 nb         1 8FX      -0.774000
      6 C2           0.0460    -0.0010     2.3160 ca         1 8FX       0.701500
      7 CAA          2.1590     0.0010    -1.1850 ca         1 8FX      -0.086000
      8 CAB          3.5240     0.0010    -1.1260 ca         1 8FX       0.016400
      9 CAC          4.1860     0.0010     0.1000 ca         1 8FX      -0.091000
     10 CAD          3.4920    -0.0000     1.2730 ca         1 8FX      -0.170300
     11 CAL         -2.1080     0.0000    -1.1620 cc         1 8FX       0.570200
     12 CAM         -2.9160    -0.0050    -0.0130 cc         1 8FX      -0.324300
     13 CAN         -4.2070    -0.0090    -0.4130 cd         1 8FX      -0.030600
     14 CAQ         -5.4150    -0.0160     0.4870 cx         1 8FX      -0.064400
     15 CAR         -0.7200    -0.0010     3.5880 c          1 8FX       0.594600
     16 CAT          0.8680    -1.6340     4.4970 c3         1 8FX       0.104000
     17 CAU          0.5050    -3.0810     4.8490 c3         1 8FX       0.141500
     18 CAW         -1.4260    -2.3690     6.1320 c3         1 8FX       0.138800
     19 CAX         -1.1420    -0.8930     5.8330 c3         1 8FX       0.114000
     20 CAY          1.7780    -3.9280     4.9010 c3         1 8FX      -0.088100
     21 CBB         -6.6550    -0.7700     0.0030 cx         1 8FX      -0.136400
     22 CBC         -6.6490     0.7590     0.0210 cx         1 8FX      -0.136400
     23 NAK         -0.7080     0.0010    -1.1840 nu         1 8FX      -0.823600
     24 NAO         -4.2230    -0.0060    -1.7630 na         1 8FX      -0.041600
     25 NAP         -2.8960    -0.0000    -2.2120 nd         1 8FX      -0.557800
     26 NAS         -0.3460    -0.8100     4.5990 n          1 8FX      -0.474800
     27 NAV         -0.1590    -3.1120     6.1590 n7         1 8FX      -0.817200
     28 OAZ         -1.6820     0.7290     3.7180 o          1 8FX      -0.582100
     29 Cl           4.4440     0.0020    -2.5980 cl         1 8FX      -0.099400
     30 H1           1.6550     0.0000    -2.1440 ha         1 8FX       0.142000
     31 H2           5.2690     0.0010     0.1210 ha         1 8FX       0.151000
     32 H3           4.0210    -0.0000     2.2180 ha         1 8FX       0.161000
     33 H4          -2.5670    -0.0740     1.0110 ha         1 8FX       0.211000
     34 H5          -5.2670    -0.0280     1.5600 hc         1 8FX       0.109700
     35 H6           1.2530    -1.5910     3.4860 h1         1 8FX       0.072700
     36 H7           1.6140    -1.2680     5.1920 h1         1 8FX       0.072700
     37 H8          -0.1670    -3.4760     4.0960 h1         1 8FX       0.026700
     38 H9          -2.0660    -2.7760     5.3580 h1         1 8FX       0.040700
     39 H10         -1.9140    -2.4540     7.0950 h1         1 8FX       0.040700
     40 H11         -2.0770    -0.3630     5.6980 h1         1 8FX       0.069200
     41 H12         -0.5850    -0.4570     6.6540 h1         1 8FX       0.069200
     42 H13          2.4830    -3.4790     5.5890 hc         1 8FX       0.041700
     43 H14          2.2190    -3.9770     3.9130 hc         1 8FX       0.041700
     44 H15          1.5320    -4.9280     5.2360 hc         1 8FX       0.041700
     45 H16         -6.5720    -1.2270    -0.9760 hc         1 8FX       0.076950
     46 H17         -7.2460    -1.2450     0.7770 hc         1 8FX       0.076950
     47 H19         -7.2360     1.2190     0.8060 hc         1 8FX       0.076950
     48 H20         -6.5630     1.2380    -0.9470 hc         1 8FX       0.076950
     49 H22         -0.2210    -0.0080    -2.0580 hn         1 8FX       0.470800
     50 H23         -5.0390    -0.0070    -2.3420 hn         1 8FX       0.329700
     51 H24         -0.3350    -4.0620     6.4210 hn         1 8FX       0.355800
@<TRIPOS>BOND
     1    20    17 1   
     2    27    17 1   
     3    27    18 1   
     4    16    17 1   
     5    16    26 1   
     6    19    26 1   
     7    19    18 1   
     8    26    15 1   
     9    15    28 2   
    10    15     6 1   
    11     4     6 ar  
    12     4     3 ar  
    13    10     3 ar  
    14    10     9 ar  
    15     6     5 ar  
    16     3     2 ar  
    17     9     8 ar  
    18     5     1 ar  
    19     2     1 ar  
    20     2     7 ar  
    21     8     7 ar  
    22     8    29 1   
    23     1    23 1   
    24    21    14 1   
    25    23    11 1   
    26    12    11 1   
    27    12    13 2   
    28    11    25 2   
    29    14    13 1   
    30    14    22 1   
    31    13    24 1   
    32    25    24 1   
    33     7    30 1   
    34     9    31 1   
    35    10    32 1   
    36    12    33 1   
    37    14    34 1   
    38    16    35 1   
    39    16    36 1   
    40    17    37 1   
    41    18    38 1   
    42    18    39 1   
    43    19    40 1   
    44    19    41 1   
    45    20    42 1   
    46    20    43 1   
    47    20    44 1   
    48    21    45 1   
    49    21    46 1   
    50    22    47 1   
    51    22    48 1   
    52    23    49 1   
    53    24    50 1   
    54    27    51 1   
    55    21    22 1   
@<TRIPOS>SUBSTRUCTURE
     1 8FX         1 TEMP              0 ****  ****    0 ROOT
