@<TRIPOS>MOLECULE
8FX
   51    55     1     0     0
SMALL
bcc


@<TRIPOS>ATOM
      1 C4           0.0000     0.0000     0.0000 ca         1 8FX       0.535200
      2 C5           1.4180     0.0000     0.0000 ca         1 8FX      -0.302600
      3 C6           2.0900     0.0000     1.2480 ca         1 8FX       0.431600
      4 N1           1.3630    -0.0000     2.3720 nb         1 8FX      -0.660000
      5 N3          -0.6270     0.0050     1.1680 nb         1 8FX      -0.659000
      6 C2           0.0460    -0.0010     2.3160 ca         1 8FX       0.616500
      7 CAA          2.1590     0.0010    -1.1850 ca         1 8FX      -0.067000
      8 CAB          3.5240     0.0010    -1.1260 ca         1 8FX      -0.047600
      9 CAC          4.1860     0.0010     0.1000 ca         1 8FX      -0.068000
     10 CAD          3.4920    -0.0000     1.2730 ca         1 8FX      -0.145300
     11 CAL         -2.1080     0.0000    -1.1620 cc         1 8FX       0.429200
     12 CAM         -2.9160    -0.0050    -0.0130 cc         1 8FX      -0.322300
     13 CAN         -4.2070    -0.0090    -0.4130 cd         1 8FX      -0.201600
     14 CAQ         -5.4150    -0.0160     0.4870 cx         1 8FX      -0.014400
     15 CAR         -0.7200    -0.0010     3.5880 c          1 8FX       0.503600
     16 CAT          0.8680    -1.6340     4.4970 c3         1 8FX       0.021000
     17 CAU          0.5050    -3.0810     4.8490 c3         1 8FX       0.100500
     18 CAW         -1.4260    -2.3690     6.1320 c3         1 8FX       0.130800
     19 CAX         -1.1420    -0.8930     5.8330 c3         1 8FX       0.050000
     20 CAY          1.7780    -3.9280     4.9010 c3         1 8FX       0.010900
     21 CBB         -6.6550    -0.7700     0.0030 cx         1 8FX      -0.082900
     22 CBC         -6.6490     0.7590     0.0210 cx         1 8FX      -0.082900
     23 NAK         -0.7080     0.0010    -1.1840 nu         1 8FX      -0.322600
     24 NAO         -4.2230    -0.0060    -1.7630 na         1 8FX       0.460400
     25 NAP         -2.8960    -0.0000    -2.2120 nd         1 8FX      -0.705800
     26 NAS         -0.3460    -0.8100     4.5990 n          1 8FX      -0.128800
     27 NAV         -0.1590    -3.1120     6.1590 n7         1 8FX      -0.580200
     28 OAZ         -1.6820     0.7290     3.7180 o          1 8FX      -0.632100
     29 Cl           4.4440     0.0020    -2.5980 cl         1 8FX      -0.015400
     30 H1           1.6550     0.0000    -2.1440 ha         1 8FX       0.117000
     31 H2           5.2690     0.0010     0.1210 ha         1 8FX       0.117000
     32 H3           4.0210    -0.0000     2.2180 ha         1 8FX       0.125000
     33 H4          -2.5670    -0.0740     1.0110 ha         1 8FX       0.199000
     34 H5          -5.2670    -0.0280     1.5600 hc         1 8FX       0.077700
     35 H6           1.2530    -1.5910     3.4860 h1         1 8FX       0.049200
     36 H7           1.6140    -1.2680     5.1920 h1         1 8FX       0.049200
     37 H8          -0.1670    -3.4760     4.0960 h1         1 8FX       0.008700
     38 H9          -2.0660    -2.7760     5.3580 h1         1 8FX       0.012200
     39 H10         -1.9140    -2.4540     7.0950 h1         1 8FX       0.012200
     40 H11         -2.0770    -0.3630     5.6980 h1         1 8FX       0.040200
     41 H12         -0.5850    -0.4570     6.6540 h1         1 8FX       0.040200
     42 H13          2.4830    -3.4790     5.5890 hc         1 8FX       0.007700
     43 H14          2.2190    -3.9770     3.9130 hc         1 8FX       0.007700
     44 H15          1.5320    -4.9280     5.2360 hc         1 8FX       0.007700
     45 H16         -6.5720    -1.2270    -0.9760 hc         1 8FX       0.046200
     46 H17         -7.2460    -1.2450     0.7770 hc         1 8FX       0.046200
     47 H19         -7.2360     1.2190     0.8060 hc         1 8FX       0.046200
     48 H20         -6.5630     1.2380    -0.9470 hc         1 8FX       0.046200
     49 H22         -0.2210    -0.0080    -2.0580 hn         1 8FX       0.291800
     50 H23         -5.0390    -0.0070    -2.3420 hn         1 8FX       0.147700
     51 H24         -0.3350    -4.0620     6.4210 hn         1 8FX       0.256800
@<TRIPOS>BOND
     1     1     2 ar  
     2     1     5 ar  
     3     1    23 1   
     4     2     3 ar  
     5     2     7 ar  
     6     3     4 ar  
     7     3    10 ar  
     8     4     6 ar  
     9     5     6 ar  
    10     6    15 1   
    11     7     8 ar  
    12     7    30 1   
    13     8     9 ar  
    14     8    29 1   
    15     9    10 ar  
    16     9    31 1   
    17    10    32 1   
    18    11    12 1   
    19    11    23 1   
    20    11    25 2   
    21    12    13 2   
    22    12    33 1   
    23    13    14 1   
    24    13    24 1   
    25    14    21 1   
    26    14    22 1   
    27    14    34 1   
    28    15    26 1   
    29    15    28 2   
    30    16    17 1   
    31    16    26 1   
    32    16    35 1   
    33    16    36 1   
    34    17    20 1   
    35    17    27 1   
    36    17    37 1   
    37    18    19 1   
    38    18    27 1   
    39    18    38 1   
    40    18    39 1   
    41    19    26 1   
    42    19    40 1   
    43    19    41 1   
    44    20    42 1   
    45    20    43 1   
    46    20    44 1   
    47    21    22 1   
    48    21    45 1   
    49    21    46 1   
    50    22    47 1   
    51    22    48 1   
    52    23    49 1   
    53    24    25 1   
    54    24    50 1   
    55    27    51 1   
@<TRIPOS>SUBSTRUCTURE
     1 8FX         1 TEMP              0 ****  ****    0 ROOT
