@<TRIPOS>MOLECULE
8FY
   47    51     1     0     0
SMALL
bcc


@<TRIPOS>ATOM
      1 C5           0.0000     0.0000     0.0000 ca         1 8FY       0.642200
      2 C7           0.0070    -0.0060    -2.4670 c3         1 8FY       0.128500
      3 C8          -0.9870    -0.0120    -3.5990 ca         1 8FY       0.566300
      4 C10         -2.2870    -1.2120    -5.0640 ca         1 8FY       0.439200
      5 C15         -2.0780     0.0010     1.6490 cc         1 8FY      -0.049400
      6 C21         -3.2640     0.0020     0.7620 ca         1 8FY       0.005200
      7 C22         -3.3530     0.9360    -0.2840 ca         1 8FY      -0.112000
      8 C24         -5.4780     0.0360    -0.9290 ca         1 8FY       0.363600
      9 C26         -7.5260    -0.8120    -1.5740 ca         1 8FY       0.406200
     10 C28         -6.4440    -1.8370     0.2920 ca         1 8FY      -0.055000
     11 C1           4.1750    -0.0020     2.3270 c3         1 8FY       0.206100
     12 C3           2.0110     0.0000     1.1380 ca         1 8FY       0.779900
     13 N4           1.3290     0.0000     0.0000 nb         1 8FY      -0.793000
     14 N6          -0.7080    -0.0050    -1.1890 nu         1 8FY      -0.507900
     15 N9          -1.4090    -1.1660    -4.0740 nb         1 8FY      -0.605500
     16 C11         -2.7590    -0.0250    -5.6000 ca         1 8FY      -0.337600
     17 C12         -2.2880     1.1690    -5.0780 ca         1 8FY       0.439200
     18 N13         -1.4150     1.1360    -4.0840 nb         1 8FY      -0.605500
     19 C14         -0.6680     0.0010     1.2330 ca         1 8FY      -0.442400
     20 C16         -2.0780     0.0010     3.0050 cd         1 8FY      -0.290100
     21 N17         -0.7890     0.0010     3.4660 na         1 8FY       0.272900
     22 C19          0.0890     0.0010     2.4150 ca         1 8FY       0.335800
     23 N20          1.4190     0.0000     2.3210 nb         1 8FY      -0.765000
     24 C23         -4.4300     0.9580    -1.1100 ca         1 8FY      -0.138300
     25 N25         -6.5440     0.0430    -1.7340 nb         1 8FY      -0.569000
     26 C27         -7.5090    -1.7670    -0.5600 ca         1 8FY      -0.222300
     27 C29         -5.3920    -0.9190     0.1170 ca         1 8FY      -0.142300
     28 C30         -4.2740    -0.9220     0.9650 ca         1 8FY      -0.087000
     29 H1           0.6270     0.8800    -2.5350 h1         1 8FY       0.040700
     30 H2           0.6320    -0.8890    -2.5300 h1         1 8FY       0.040700
     31 H3          -2.6320    -2.1640    -5.4480 h4         1 8FY      -0.012400
     32 H4          -2.5560     1.6560    -0.4260 ha         1 8FY       0.124000
     33 H5          -8.3780    -0.7680    -2.2420 h4         1 8FY      -0.022900
     34 H6          -6.4130    -2.5730     1.0860 ha         1 8FY       0.111000
     35 H7           5.2310    -0.0020     2.0890 h1         1 8FY       0.005367
     36 H8           3.9290     0.8990     2.8760 h1         1 8FY       0.005367
     37 H9           3.9410    -0.8690     2.9330 h1         1 8FY       0.005367
     38 H10          3.8620    -0.0020     0.2020 hn         1 8FY       0.295800
     39 H11         -1.7070    -0.0630    -1.1750 hn         1 8FY       0.320800
     40 H12         -3.4760    -0.0300    -6.4120 ha         1 8FY       0.125000
     41 H13         -2.6350     2.1170    -5.4720 h4         1 8FY      -0.012400
     42 H14         -2.9640     0.0020     3.6290 h4         1 8FY       0.146000
     43 H15         -0.5260     0.0010     4.4310 hn         1 8FY       0.116700
     44 H16         -4.4820     1.6850    -1.9120 ha         1 8FY       0.118000
     45 H17         -8.3360    -2.4590    -0.4530 ha         1 8FY       0.112000
     46 H18         -4.1390    -1.7250     1.6790 ha         1 8FY       0.116000
     47 N2           3.3940    -0.0020     1.0870 nu         1 8FY      -0.494900
@<TRIPOS>BOND
     1     1    13 ar  
     2     1    14 1   
     3     1    19 ar  
     4     2     3 1   
     5     2    14 1   
     6     2    29 1   
     7     2    30 1   
     8     3    15 ar  
     9     3    18 ar  
    10     4    15 ar  
    11     4    16 ar  
    12     4    31 1   
    13     5     6 1   
    14     5    19 1   
    15     5    20 2   
    16     6     7 ar  
    17     6    28 ar  
    18     7    24 ar  
    19     7    32 1   
    20     8    24 ar  
    21     8    25 ar  
    22     8    27 ar  
    23     9    25 ar  
    24     9    26 ar  
    25     9    33 1   
    26    10    26 ar  
    27    10    27 ar  
    28    10    34 1   
    29    11    35 1   
    30    11    36 1   
    31    11    37 1   
    32    11    47 1   
    33    12    13 ar  
    34    12    23 ar  
    35    12    47 1   
    36    14    39 1   
    37    16    17 ar  
    38    16    40 1   
    39    17    18 ar  
    40    17    41 1   
    41    19    22 ar  
    42    20    21 1   
    43    20    42 1   
    44    21    22 1   
    45    21    43 1   
    46    22    23 ar  
    47    24    44 1   
    48    26    45 1   
    49    27    28 ar  
    50    28    46 1   
    51    38    47 1   
@<TRIPOS>SUBSTRUCTURE
     1 8FY         1 TEMP              0 ****  ****    0 ROOT
