@<TRIPOS>MOLECULE
molecule
   16    16     1     0     0
SMALL
bcc


@<TRIPOS>ATOM
      1 O01          0.0000     0.0000     0.0000 o          1 8G0      -0.867300
      2 C02          1.3470     0.0000     0.0000 c          1 8G0       0.892200
      3 O03          1.9540     0.0000     1.0520 o          1 8G0      -0.867300
      4 C04          2.0850     0.0010    -1.2800 ca         1 8G0      -0.147600
      5 C05          1.3880     0.0010    -2.4900 ca         1 8G0      -0.113000
      6 C06          2.0770     0.0030    -3.6880 ca         1 8G0      -0.208000
      7 C07          3.4590     0.0040    -3.6960 ca         1 8G0      -0.113000
      8 C08          4.1680     0.0040    -2.4930 ca         1 8G0      -0.147600
      9 C09          5.6450     0.0040    -2.5030 c          1 8G0       0.892200
     10 O10          6.2600     0.0040    -1.4570 o          1 8G0      -0.867300
     11 O11          6.3100     0.0060    -3.6750 o          1 8G0      -0.867300
     12 C12          3.4790     0.0080    -1.2810 ca         1 8G0      -0.072000
     13 H2           0.3050     0.0000    -2.4900 ha         1 8G0       0.124000
     14 H3           1.5320     0.0030    -4.6240 ha         1 8G0       0.077000
     15 H4           3.9930     0.0060    -4.6380 ha         1 8G0       0.124000
     16 H6           4.0240     0.0080    -0.3450 ha         1 8G0       0.159000
@<TRIPOS>BOND
     1    10     9 1   
     2     3     2 1   
     3     9     8 1   
     4     9    11 1   
     5    12     8 ar  
     6    12     4 ar  
     7     8     7 ar  
     8     2     4 1   
     9     2     1 1   
    10     4     5 ar  
    11     7     6 ar  
    12     5     6 ar  
    13     5    13 1   
    14     6    14 1   
    15     7    15 1   
    16    12    16 1   
@<TRIPOS>SUBSTRUCTURE
     1 8G0         1 TEMP              0 ****  ****    0 ROOT
