@<TRIPOS>MOLECULE
8G1
   54    60     1     0     0
SMALL
bcc


@<TRIPOS>ATOM
      1 C1           0.0000     0.0000     0.0000 c2         1 8G1      -0.210000
      2 C2           1.3840     0.0000     0.0000 c2         1 8G1       0.145000
      3 C3           2.0780     0.0000     1.2970 c2         1 8G1       0.232000
      4 C7           2.6230     1.2630     4.1450 c3         1 8G1      -0.157000
      5 C8           4.0540     0.7090     3.9710 c3         1 8G1      -0.055000
      6 C9           3.9410    -0.7760     4.2470 ca         1 8G1       0.023000
      7 C10          2.6170    -1.1650     4.1710 ca         1 8G1      -0.145000
      8 C11          2.2760    -2.5040     4.3920 ca         1 8G1       0.098000
      9 C12          3.2690    -3.4370     4.6860 ca         1 8G1      -0.127000
     10 C13          4.5870    -3.0350     4.7590 ca         1 8G1      -0.112000
     11 C14          4.9200    -1.7120     4.5410 ca         1 8G1      -0.054000
     12 C15          0.9060    -2.9140     4.3140 c1         1 8G1      -0.119000
     13 C16         -0.7680     0.0330    -1.2630 c2         1 8G1       0.297000
     14 C20         -3.4100    -1.2710    -2.5340 ca         1 8G1      -0.064000
     15 C21         -4.6340    -1.5890    -1.9740 ca         1 8G1      -0.056000
     16 C22         -5.1170    -2.8810    -2.0550 ca         1 8G1      -0.145000
     17 C24         -3.1530    -3.5370    -3.2650 ca         1 8G1      -0.179000
     18 O3          -0.2110    -0.1690    -2.3250 o          1 8G1      -0.364000
     19 N3          -2.0890     0.2870    -1.2250 nx         1 8G1      -0.038000
     20 C25         -2.6710    -2.2430    -3.1820 ca         1 8G1      -0.061000
     21 Cl          -2.2250    -4.7580    -4.0770 cl         1 8G1       0.084000
     22 C23         -4.3760    -3.8580    -2.6980 ca         1 8G1       0.078000
     23 F           -4.8470    -5.1210    -2.7780 f          1 8G1      -0.088000
     24 C17         -2.7440     0.7070     0.0110 c3         1 8G1      -0.147000
     25 C18         -2.2040    -0.0640     1.2130 c3         1 8G1      -0.067000
     26 C           -0.6970    -0.0120     1.2270 c2         1 8G1       0.013000
     27 C4          -0.0200     0.0100     2.4100 c2         1 8G1      -0.230000
     28 C5          -0.5120     0.0250     3.8020 c2         1 8G1       0.268000
     29 O           -1.6810     0.0260     4.1360 o          1 8G1      -0.351000
     30 N1           0.5390     0.0400     4.6460 ns         1 8G1      -0.016000
     31 C6           1.7570     0.0300     3.8420 c3         1 8G1       0.042000
     32 N            1.3560     0.0140     2.4350 n          1 8G1       0.186000
     33 O1           3.2950    -0.0120     1.3430 o          1 8G1      -0.372000
     34 O2           2.0790    -0.0020    -1.1610 oh         1 8G1      -0.213000
     35 N2          -0.1750    -3.2570     4.2610 n1         1 8G1      -0.036000
     36 H1           2.3380     1.4790     3.1230 hc         1 8G1       0.108000
     37 H2           2.3660     1.7020     5.1010 hc         1 8G1       0.108000
     38 H3           4.6130     0.8970     4.8800 hc         1 8G1       0.069000
     39 H4           4.7420     1.3800     3.4720 hc         1 8G1       0.069000
     40 H5           3.1410    -4.5130     4.6860 ha         1 8G1       0.120000
     41 H6           4.9810    -3.9900     5.0860 ha         1 8G1       0.131000
     42 H7           6.0000    -1.6500     4.6070 ha         1 8G1       0.116000
     43 H8          -1.8890     0.0330    -2.8560 hx         1 8G1       0.117000
     44 H9          -2.7940     0.8390    -1.6240 DU         1 8G1       0.270000
     45 H10         -5.3250    -0.9630    -1.4230 ha         1 8G1       0.111000
     46 H11         -6.1370    -3.1250    -1.7850 ha         1 8G1       0.123000
     47 H12         -1.7120    -2.2370    -3.6850 ha         1 8G1       0.134000
     48 H13         -3.7430     0.7440    -0.4040 hx         1 8G1       0.089500
     49 H14         -2.5020     1.6630     0.4610 hx         1 8G1       0.089500
     50 H15         -2.4090    -1.0610     0.8410 hc         1 8G1       0.089000
     51 H16         -3.0270     0.0300     1.9120 hc         1 8G1       0.089000
     52 H17          0.2810     0.3000     5.5780 hn         1 8G1       0.142000
     53 H18          1.9030    -0.7360    -1.7260 ho         1 8G1       0.244000
     54 C19         -2.8860     0.1390    -2.4450 c3         1 8G1      -0.283000
@<TRIPOS>BOND
     1     1     2 1   
     2     1    13 1   
     3     1    26 1   
     4     2     3 1   
     5     2    34 1   
     6     3    32 1   
     7     3    33 1   
     8     4     5 1   
     9     4    31 1   
    10     4    36 1   
    11     4    37 1   
    12     5     6 1   
    13     5    38 1   
    14     5    39 1   
    15     6     7 1   
    16     6    11 1   
    17     7     8 1   
    18     7    31 1   
    19     8     9 1   
    20     8    12 1   
    21     9    10 1   
    22     9    40 1   
    23    10    11 1   
    24    10    41 1   
    25    11    42 1   
    26    12    35 1   
    27    13    18 1   
    28    13    19 1   
    29    14    15 1   
    30    14    20 1   
    31    14    54 1   
    32    15    16 1   
    33    15    45 1   
    34    16    22 1   
    35    16    46 1   
    36    17    20 1   
    37    17    21 1   
    38    17    22 1   
    39    19    24 1   
    40    19    44 1   
    41    19    54 1   
    42    20    47 1   
    43    22    23 1   
    44    24    25 1   
    45    24    48 1   
    46    24    49 1   
    47    25    26 1   
    48    25    50 1   
    49    25    51 1   
    50    26    27 1   
    51    27    28 1   
    52    27    32 1   
    53    28    29 1   
    54    28    30 1   
    55    30    31 1   
    56    30    52 1   
    57    31    32 1   
    58    34    53 1   
    59    43    54 1   
    60    44    54 1   
@<TRIPOS>SUBSTRUCTURE
     1 8G1         1 TEMP              0 ****  ****    0 ROOT
