@<TRIPOS>MOLECULE
molecule
   54    59     1     0     0
SMALL
bcc


@<TRIPOS>ATOM
      1 C1           0.0000     0.0000     0.0000 cc         1 8G1      -0.181200
      2 C2           1.3840     0.0000     0.0000 cd         1 8G1       0.134900
      3 C3           2.0780     0.0000     1.2970 c          1 8G1       0.691700
      4 C7           2.6230     1.2630     4.1450 c3         1 8G1      -0.115400
      5 C8           4.0540     0.7090     3.9710 c3         1 8G1      -0.045100
      6 C9           3.9410    -0.7760     4.2470 ca         1 8G1      -0.001300
      7 C10          2.6170    -1.1650     4.1710 ca         1 8G1      -0.110300
      8 C11          2.2760    -2.5040     4.3920 ca         1 8G1       0.037000
      9 C12          3.2690    -3.4370     4.6860 ca         1 8G1      -0.135000
     10 C13          4.5870    -3.0350     4.7590 ca         1 8G1      -0.138000
     11 C14          4.9200    -1.7120     4.5410 ca         1 8G1      -0.088000
     12 C15          0.9060    -2.9140     4.3140 cg         1 8G1       0.230800
     13 C16         -0.7680     0.0330    -1.2630 c          1 8G1       0.697700
     14 C20         -3.4100    -1.2710    -2.5340 ca         1 8G1      -0.087300
     15 C21         -4.6340    -1.5890    -1.9740 ca         1 8G1      -0.082000
     16 C22         -5.1170    -2.8810    -2.0550 ca         1 8G1      -0.179000
     17 C24         -3.1530    -3.5370    -3.2650 ca         1 8G1      -0.037600
     18 O3          -0.2110    -0.1690    -2.3250 o          1 8G1      -0.605500
     19 N3          -2.0890     0.2870    -1.2250 n          1 8G1      -0.496800
     20 C25         -2.6710    -2.2430    -3.1820 ca         1 8G1      -0.081000
     21 Cl          -2.2250    -4.7580    -4.0770 cl         1 8G1      -0.088400
     22 C23         -4.3760    -3.8580    -2.6980 ca         1 8G1       0.142900
     23 F           -4.8470    -5.1210    -2.7780 f          1 8G1      -0.128900
     24 C17         -2.7440     0.7070     0.0110 c3         1 8G1       0.009000
     25 C18         -2.2040    -0.0640     1.2130 c3         1 8G1      -0.054200
     26 C           -0.6970    -0.0120     1.2270 cc         1 8G1      -0.025200
     27 C4          -0.0200     0.0100     2.4100 cd         1 8G1      -0.075600
     28 C5          -0.5120     0.0250     3.8020 c          1 8G1       0.693700
     29 O           -1.6810     0.0260     4.1360 o          1 8G1      -0.591500
     30 N1           0.5390     0.0400     4.6460 ns         1 8G1      -0.580900
     31 C6           1.7570     0.0300     3.8420 c3         1 8G1       0.342100
     32 N            1.3560     0.0140     2.4350 n          1 8G1      -0.343000
     33 O1           3.2950    -0.0120     1.3430 o          1 8G1      -0.592500
     34 O2           2.0790    -0.0020    -1.1610 oh         1 8G1      -0.476100
     35 N2          -0.1750    -3.2570     4.2610 n1         1 8G1      -0.350800
     36 H1           2.3380     1.4790     3.1230 hc         1 8G1       0.100700
     37 H2           2.3660     1.7020     5.1010 hc         1 8G1       0.100700
     38 H3           4.6130     0.8970     4.8800 hc         1 8G1       0.066200
     39 H4           4.7420     1.3800     3.4720 hc         1 8G1       0.066200
     40 H5           3.1410    -4.5130     4.6860 ha         1 8G1       0.146000
     41 H6           4.9810    -3.9900     5.0860 ha         1 8G1       0.159000
     42 H7           6.0000    -1.6500     4.6070 ha         1 8G1       0.147000
     43 H8          -1.8890     0.0330    -2.8560 h1         1 8G1       0.196200
     44 H9          -2.7940     0.8390    -1.6240 h1         1 8G1       0.196200
     45 H10         -5.3250    -0.9630    -1.4230 ha         1 8G1       0.140000
     46 H11         -6.1370    -3.1250    -1.7850 ha         1 8G1       0.150000
     47 H12         -1.7120    -2.2370    -3.6850 ha         1 8G1       0.165000
     48 H13         -3.7430     0.7440    -0.4040 h1         1 8G1       0.076200
     49 H14         -2.5020     1.6630     0.4610 h1         1 8G1       0.076200
     50 H15         -2.4090    -1.0610     0.8410 hc         1 8G1       0.085200
     51 H16         -3.0270     0.0300     1.9120 hc         1 8G1       0.085200
     52 H17          0.2810     0.3000     5.5780 hn         1 8G1       0.375500
     53 H18          1.9030    -0.7360    -1.7260 ho         1 8G1       0.466000
     54 C19         -2.8860     0.1390    -2.4450 c3         1 8G1      -0.086700
@<TRIPOS>BOND
     1    34     2 1   
     2    33     3 2   
     3    11    10 ar  
     4    11     6 ar  
     5     5     6 1   
     6     5     4 1   
     7    10     9 ar  
     8     6     7 ar  
     9     3     2 1   
    10     3    32 1   
    11     2     1 2   
    12    18    13 2   
    13    21    17 1   
    14     4    31 1   
    15     9     8 ar  
    16     7    31 1   
    17     7     8 ar  
    18    32    31 1   
    19    32    27 1   
    20    13     1 1   
    21    13    19 1   
    22     1    26 1   
    23    31    30 1   
    24     8    12 1   
    25    20    17 ar  
    26    20    14 ar  
    27    17    22 ar  
    28    27    26 2   
    29    27    28 1   
    30    19    54 1   
    31    19    24 1   
    32    26    25 1   
    33    54    14 1   
    34    14    15 ar  
    35    12    35 3   
    36    30    28 1   
    37    22    23 1   
    38    22    16 ar  
    39    28    29 2   
    40    24    25 1   
    41    15    16 ar  
    42     4    36 1   
    43     4    37 1   
    44     5    38 1   
    45     5    39 1   
    46     9    40 1   
    47    10    41 1   
    48    11    42 1   
    49    54    43 1   
    50    54    44 1   
    51    15    45 1   
    52    16    46 1   
    53    20    47 1   
    54    24    48 1   
    55    24    49 1   
    56    25    50 1   
    57    25    51 1   
    58    30    52 1   
    59    34    53 1   
@<TRIPOS>SUBSTRUCTURE
     1 8G1         1 TEMP              0 ****  ****    0 ROOT
