@<TRIPOS>MOLECULE
8G2
   24    24     1     0     0
SMALL
bcc


@<TRIPOS>ATOM
      1 C4           0.0000     0.0000     0.0000 ca         1 8G2      -0.082500
      2 C5           1.3840     0.0000     0.0000 ca         1 8G2      -0.195300
      3 C6           2.0820     0.0000     1.1940 ca         1 8G2      -0.082500
      4 C7           1.4010    -0.0010     2.3950 ca         1 8G2      -0.029500
      5 C8           2.1330     0.0000    -1.3080 c3         1 8G2       0.035100
      6 O1          -0.1190    -0.0020     4.7340 o          1 8G2      -0.553000
      7 O           -2.0760    -0.0020     3.6870 os         1 8G2      -0.413900
      8 C           -2.7320    -0.0030     4.9820 c3         1 8G2       0.274700
      9 C2           0.0060    -0.0000     2.4020 ca         1 8G2      -0.082600
     10 C3          -0.6930    -0.0010     1.1920 ca         1 8G2      -0.029500
     11 N            2.3770     1.3850    -1.7330 nz         1 8G2       0.076400
     12 H7          -0.5400    -0.0000    -0.9390 ha         1 8G2       0.112500
     13 H8           3.1650    -0.0000     1.1860 ha         1 8G2       0.112500
     14 H9           1.9490    -0.0010     3.3290 ha         1 8G2       0.144000
     15 H11          3.0800    -0.5100    -1.1810 hx         1 8G2       0.083700
     16 H10          1.5460    -0.5110    -2.0610 hx         1 8G2       0.083700
     17 H4          -2.4390    -0.8880     5.5350 h1         1 8G2       0.010367
     18 H3          -2.4400     0.8810     5.5360 h1         1 8G2       0.010367
     19 H5          -3.8060    -0.0030     4.8430 h1         1 8G2       0.010367
     20 H6          -1.7760    -0.0010     1.1910 ha         1 8G2       0.144000
     21 H2           1.5020     1.8560    -1.8530 hn         1 8G2       0.223467
     22 H            2.8770     1.3840    -2.6000 hn         1 8G2       0.223467
     23 H1           2.9180     1.8580    -1.0360 hn         1 8G2       0.223467
     24 C1          -0.7300    -0.0010     3.6830 c          1 8G2       0.701700
@<TRIPOS>BOND
     1     1     2 ar  
     2     1    10 ar  
     3     1    12 1   
     4     2     3 ar  
     5     2     5 1   
     6     3     4 ar  
     7     3    13 1   
     8     4     9 ar  
     9     4    14 1   
    10     5    11 1   
    11     5    15 1   
    12     5    16 1   
    13     6    24 2   
    14     7     8 1   
    15     7    24 1   
    16     8    17 1   
    17     8    18 1   
    18     8    19 1   
    19     9    10 ar  
    20     9    24 1   
    21    10    20 1   
    22    11    21 1   
    23    11    22 1   
    24    11    23 1   
@<TRIPOS>SUBSTRUCTURE
     1 8G2         1 TEMP              0 ****  ****    0 ROOT
