@<TRIPOS>MOLECULE
molecule
   24    24     1     0     0
SMALL
bcc


@<TRIPOS>ATOM
      1 C4           0.0000     0.0000     0.0000 ca         1 8G2      -0.115500
      2 C5           1.3840     0.0000     0.0000 ca         1 8G2      -0.177300
      3 C6           2.0820     0.0000     1.1940 ca         1 8G2      -0.115500
      4 C7           1.4010    -0.0010     2.3950 ca         1 8G2      -0.062500
      5 C8           2.1330     0.0000    -1.3080 c3         1 8G2       0.157100
      6 O1          -0.1190    -0.0020     4.7340 o          1 8G2      -0.516000
      7 O           -2.0760    -0.0020     3.6870 os         1 8G2      -0.425900
      8 C           -2.7320    -0.0030     4.9820 c3         1 8G2       0.140700
      9 C2           0.0060    -0.0000     2.4020 ca         1 8G2      -0.072600
     10 C3          -0.6930    -0.0010     1.1920 ca         1 8G2      -0.062500
     11 N            2.3770     1.3850    -1.7330 nz         1 8G2      -0.810600
     12 H7          -0.5400    -0.0000    -0.9390 ha         1 8G2       0.142000
     13 H8           3.1650    -0.0000     1.1860 ha         1 8G2       0.142000
     14 H9           1.9490    -0.0010     3.3290 ha         1 8G2       0.181000
     15 H11          3.0800    -0.5100    -1.1810 hx         1 8G2       0.114700
     16 H10          1.5460    -0.5110    -2.0610 hx         1 8G2       0.114700
     17 H4          -2.4390    -0.8880     5.5350 h1         1 8G2       0.061033
     18 H3          -2.4400     0.8810     5.5360 h1         1 8G2       0.061033
     19 H5          -3.8060    -0.0030     4.8430 h1         1 8G2       0.061033
     20 H6          -1.7760    -0.0010     1.1910 ha         1 8G2       0.181000
     21 H2           1.5020     1.8560    -1.8530 hn         1 8G2       0.456133
     22 H            2.8770     1.3840    -2.6000 hn         1 8G2       0.456133
     23 H1           2.9180     1.8580    -1.0360 hn         1 8G2       0.456133
     24 C1          -0.7300    -0.0010     3.6830 c          1 8G2       0.635700
@<TRIPOS>BOND
     1     5     2 1
     2     5    11 1
     3     2     1 ar
     4     2     3 ar
     5     1    10 ar
     6     3     4 ar
     7    10     9 ar
     8     4     9 ar
     9     9    24 1
    10    24     7 1
    11    24     6 2
    12     7     8 1
    13     1    12 1
    14     3    13 1
    15     4    14 1
    16     5    15 1
    17     5    16 1
    18     8    17 1
    19     8    18 1
    20     8    19 1
    21    10    20 1
    22    11    21 1
    23    11    22 1
    24    11    23 1
@<TRIPOS>SUBSTRUCTURE
     1 8G2         1 TEMP              0 ****  ****    0 ROOT
