@<TRIPOS>MOLECULE
molecule
   35    38     1     0     0
SMALL
bcc


@<TRIPOS>ATOM
      1 C9           0.0000     0.0000     0.0000 cc         1 8G3      -0.364600
      2 C8           1.3880     0.0000     0.0000 cc         1 8G3       0.411600
      3 C5          -0.4210     0.0060     1.3230 cd         1 8G3       0.415500
      4 C15         -5.5810     0.0140     3.2960 cc         1 8G3       0.578300
      5 C12         -7.4520     0.7480     4.1160 cd         1 8G3       0.445500
      6 C18         -9.6390    -0.5320     5.0680 cc         1 8G3      -0.328300
      7 C3          -0.6500     0.0180     4.0220 cc         1 8G3      -0.353300
      8 C17         -8.5900    -1.2630     4.6130 cd         1 8G3       0.021700
      9 C19         -9.5600     0.8660     5.0460 cc         1 8G3       0.479200
     10 C4           0.5950     0.0160     3.4630 cd         1 8G3       0.253800
     11 C2          -1.7740     0.0140     3.1940 cc         1 8G3       0.480600
     12 C10          2.2630     0.0010    -1.2270 c3         1 8G3      -0.094400
     13 C20         -4.2020     0.0110     2.6880 c3         1 8G3      -0.058700
     14 C21         -3.1530     0.0170     3.8020 c3         1 8G3      -0.127700
     15 N7           1.8140     0.0000     1.2420 nd         1 8G3      -0.563100
     16 N11         -6.2810     1.0990     3.5980 nc         1 8G3      -0.436300
     17 N14         -6.2750    -1.0570     3.6020 nd         1 8G3      -0.609100
     18 N1          -1.6370     0.0080     1.8880 nd         1 8G3      -0.690000
     19 N16         -8.4900     1.4620     4.5710 nd         1 8G3      -0.658000
     20 N6           0.7090     0.0100     2.0990 na         1 8G3       0.016200
     21 N13         -7.4940    -0.6180     4.1330 na         1 8G3       0.016200
     22 O22          1.6990     0.0210     4.2440 oh         1 8G3      -0.487100
     23 H1          -0.6370     0.0950    -0.8710 ha         1 8G3       0.172000
     24 H2         -10.5210    -1.0240     5.4600 ha         1 8G3       0.163000
     25 H3          -0.7640    -0.1190     5.0910 ha         1 8G3       0.168000
     26 H5          -8.6310    -2.3460     4.6200 h4         1 8G3       0.178000
     27 H6         -10.3920     1.4580     5.4070 h4         1 8G3       0.043100
     28 H7           2.0270    -0.8610    -1.8390 hc         1 8G3       0.055033
     29 H8           3.3030    -0.0430    -0.9290 hc         1 8G3       0.055033
     30 H9           2.0870     0.9060    -1.7950 hc         1 8G3       0.055033
     31 H10         -4.0780     0.8920     2.0710 hc         1 8G3       0.085700
     32 H11         -4.0780    -0.8770     2.0800 hc         1 8G3       0.085700
     33 H12         -3.2780     0.9050     4.4110 hc         1 8G3       0.072700
     34 H13         -3.2770    -0.8640     4.4200 hc         1 8G3       0.072700
     35 H4           1.8280     0.8840     4.6000 ho         1 8G3       0.445000
@<TRIPOS>BOND
     1     6     8 2
     2     6     9 1
     3     8    21 1
     4     9    19 2
     5    21    17 1
     6    21     5 1
     7    17     4 2
     8    19     5 1
     9     5    16 2
    10     4    16 1
    11     4    13 1
    12    13    14 1
    13    14    11 1
    14     7    11 1
    15     7    10 2
    16    11    18 2
    17    22    10 1
    18    10    20 1
    19    18     3 1
    20    20     3 1
    21    20    15 1
    22     3     1 2
    23    15     2 2
    24     1     2 1
    25     2    12 1
    26     1    23 1
    27     6    24 1
    28     7    25 1
    29     8    26 1
    30     9    27 1
    31    12    28 1
    32    12    29 1
    33    12    30 1
    34    13    31 1
    35    13    32 1
    36    14    33 1
    37    14    34 1
    38    22    35 1
@<TRIPOS>SUBSTRUCTURE
     1 8G3         1 TEMP              0 ****  ****    0 ROOT
