@<TRIPOS>MOLECULE
8G4
   64    70     1     0     0
SMALL
bcc


@<TRIPOS>ATOM
      1 F            0.0000     0.0000     0.0000 f          1 8G4      -0.120900
      2 Cl           1.1770    -0.0120    -2.7040 cl         1 8G4       0.005600
      3 C1           6.3310     2.0130     1.1640 c          1 8G4       0.657700
      4 N1           7.2520     6.1760     1.0370 n          1 8G4       0.107000
      5 O1           7.8390     6.1300     3.1830 o          1 8G4      -0.681500
      6 C2           6.6420     3.4580     1.1600 cc         1 8G4      -0.166200
      7 N2           7.0970     7.7030    -0.7530 n          1 8G4      -0.140800
      8 O2           6.2630     6.2540    -2.3000 o          1 8G4      -0.643500
      9 C3           6.4480     4.2010    -0.0260 cc         1 8G4      -0.031200
     10 N3           5.8110    10.5750    -2.7560 n          1 8G4      -0.146400
     11 C4           5.8780     3.5080    -1.2380 c3         1 8G4       0.001800
     12 C5           6.7590     5.5260    -0.0720 cd         1 8G4      -0.248600
     13 C6           7.4290     5.5290     2.2060 c          1 8G4       0.574700
     14 C7           7.1230     4.0920     2.2920 cd         1 8G4       0.119900
     15 C8           7.4890     7.5640     0.6450 c3         1 8G4       0.103800
     16 C10          7.1620     8.9300    -1.5500 c3         1 8G4       0.023000
     17 C11          5.7470     9.3480    -1.9580 c3         1 8G4       0.028000
     18 C12          5.7650    11.8250    -2.2600 c          1 8G4       0.592700
     19 C25          1.3510     0.0000     0.0000 ca         1 8G4       0.115900
     20 C24          2.0440     0.0000     1.1970 ca         1 8G4      -0.125000
     21 C23          3.4260     0.0010     1.1950 ca         1 8G4      -0.051000
     22 C26          2.0440    -0.0040    -1.2010 ca         1 8G4      -0.079600
     23 C27          3.4270    -0.0030    -1.1990 ca         1 8G4      -0.070000
     24 C22          4.1170     0.0020    -0.0020 ca         1 8G4      -0.131300
     25 C21          5.6250     0.0030    -0.0020 c3         1 8G4       0.113300
     26 N            6.1110     1.3850    -0.0080 n          1 8G4      -0.152800
     27 O5           6.2790     1.3990     2.2110 o          1 8G4      -0.660500
     28 O            7.3050     3.4110     3.4480 oh         1 8G4      -0.424100
     29 C19          8.9610     7.9520     0.8510 cx         1 8G4      -0.176700
     30 C20          9.5560     9.0610    -0.0180 cx         1 8G4      -0.056400
     31 C18          8.9610     9.4100     1.3470 cx         1 8G4      -0.113700
     32 C17          7.4840     9.8560     1.4050 c3         1 8G4       0.003600
     33 C16          6.6910     8.5310     1.5420 c3         1 8G4      -0.060400
     34 C9           6.6660     6.5000    -1.1790 c          1 8G4       0.654700
     35 C            6.3490     2.0570    -1.2820 c3         1 8G4       0.058000
     36 C15          5.9320    10.6240    -4.0940 c          1 8G4       0.592700
     37 O3           6.0050     9.6660    -4.8370 o          1 8G4      -0.589000
     38 C14          5.9610    12.0450    -4.5090 cc         1 8G4      -0.151700
     39 C13          5.8650    12.7780    -3.3880 cd         1 8G4      -0.151700
     40 O4           5.6580    12.1210    -1.0880 o          1 8G4      -0.589000
     41 H1           6.2110     4.0200    -2.1320 hc         1 8G4       0.053700
     42 H2           4.7960     3.5310    -1.1860 hc         1 8G4       0.053700
     43 H3           7.6170     9.7190    -0.9630 h1         1 8G4       0.059700
     44 H4           7.7560     8.7530    -2.4390 h1         1 8G4       0.059700
     45 H5           5.1530     9.5260    -1.0700 h1         1 8G4       0.057200
     46 H6           5.2930     8.5590    -2.5450 h1         1 8G4       0.057200
     47 H7           1.5040    -0.0010     2.1360 ha         1 8G4       0.125000
     48 H8           3.9690     0.0030     2.1330 ha         1 8G4       0.133000
     49 H9           3.9690    -0.0020    -2.1370 ha         1 8G4       0.117000
     50 H10          5.9860    -0.5100    -0.8850 h1         1 8G4       0.039200
     51 H11          5.9860    -0.5040     0.8840 h1         1 8G4       0.039200
     52 H12          8.2180     3.4280     3.6830 ho         1 8G4       0.413000
     53 H13          9.6240     7.3200     1.4300 hc         1 8G4       0.092700
     54 H14         10.6380     9.0810    -0.0750 hc         1 8G4       0.061700
     55 H15          8.9610     9.3530    -0.8760 hc         1 8G4       0.061700
     56 H16          9.6220     9.5630     2.1910 hc         1 8G4       0.075700
     57 H17          7.2080    10.3690     0.4920 hc         1 8G4       0.033200
     58 H18          7.3140    10.4870     2.2690 hc         1 8G4       0.033200
     59 H19          5.6800     8.6500     1.1700 hc         1 8G4       0.049200
     60 H20          6.6920     8.1880     2.5690 hc         1 8G4       0.049200
     61 H21          5.8110     1.5340    -2.0640 h1         1 8G4       0.021700
     62 H22          7.4100     2.0370    -1.5000 h1         1 8G4       0.021700
     63 H23          6.6190    12.3620    -5.3090 ha         1 8G4       0.150500
     64 H24          5.2750    13.6860    -3.3840 ha         1 8G4       0.150500
@<TRIPOS>BOND
     1     1    19 1   
     2     2    22 1   
     3     3     6 1   
     4     3    26 1   
     5     3    27 2   
     6     4    12 1   
     7     4    13 1   
     8     4    15 1   
     9     5    13 2   
    10     6     9 1   
    11     6    14 2   
    12     7    15 1   
    13     7    16 1   
    14     7    34 1   
    15     8    34 2   
    16     9    11 1   
    17     9    12 2   
    18    10    17 1   
    19    10    18 1   
    20    10    36 1   
    21    11    35 1   
    22    11    41 1   
    23    11    42 1   
    24    12    34 1   
    25    13    14 1   
    26    14    28 1   
    27    15    29 1   
    28    15    33 1   
    29    16    17 1   
    30    16    43 1   
    31    16    44 1   
    32    17    45 1   
    33    17    46 1   
    34    18    39 1   
    35    18    40 2   
    36    19    20 ar  
    37    19    22 ar  
    38    20    21 ar  
    39    20    47 1   
    40    21    24 ar  
    41    21    48 1   
    42    22    23 ar  
    43    23    24 ar  
    44    23    49 1   
    45    24    25 1   
    46    25    26 1   
    47    25    50 1   
    48    25    51 1   
    49    26    35 1   
    50    28    52 1   
    51    29    30 1   
    52    29    31 1   
    53    29    53 1   
    54    30    31 1   
    55    30    54 1   
    56    30    55 1   
    57    31    32 1   
    58    31    56 1   
    59    32    33 1   
    60    32    57 1   
    61    32    58 1   
    62    33    59 1   
    63    33    60 1   
    64    35    61 1   
    65    35    62 1   
    66    36    37 2   
    67    36    38 1   
    68    38    39 2   
    69    38    63 1   
    70    39    64 1   
@<TRIPOS>SUBSTRUCTURE
     1 8G4         1 TEMP              0 ****  ****    0 ROOT
