@<TRIPOS>MOLECULE
8G5
   33    35     1     0     0
SMALL
bcc


@<TRIPOS>ATOM
      1 C4           0.0000     0.0000     0.0000 c3         1 8G5      -0.158400
      2 C5           1.5180     0.0000     0.0000 c          1 8G5       0.796600
      3 C6           0.9570    -0.7370     2.0920 c3         1 8G5       0.173800
      4 N1          -4.1870    -0.4310     4.2770 nv         1 8G5      -0.532500
      5 C7           0.7370    -0.0300     3.4280 c3         1 8G5      -0.043900
      6 C8           2.0500    -0.0050     4.2150 c3         1 8G5      -0.023400
      7 C9           2.5260    -1.4380     4.4570 c3         1 8G5      -0.025400
      8 C10          2.7580    -2.1330     3.1120 c3         1 8G5      -0.023400
      9 C11          1.4470    -2.1640     2.3230 c3         1 8G5      -0.043900
     10 O            2.2350     0.0000    -0.9720 o          1 8G5      -0.597500
     11 O1           1.9150     0.0000     1.2860 os         1 8G5      -0.392900
     12 C3          -0.3610    -0.7630     1.2950 c3         1 8G5      -0.100000
     13 C1          -1.4530    -0.0460     2.0480 cc         1 8G5       0.357600
     14 N           -2.3130    -0.6750     2.8300 nc         1 8G5      -0.604000
     15 C2          -3.2070     0.0530     3.4230 cd         1 8G5       0.553300
     16 S           -3.0000     1.6970     3.0010 ss         1 8G5      -0.338300
     17 C           -1.6260     1.2740     1.9850 cd         1 8G5      -0.135400
     18 H4          -0.3800    -0.5250    -0.8680 hc         1 8G5       0.054700
     19 H5          -0.3800     1.0140     0.0380 hc         1 8G5       0.054700
     20 H3          -4.8330    -1.1250     3.9550 hn         1 8G5       0.276800
     21 H2          -4.2610    -0.0720     5.2080 hn         1 8G5       0.276800
     22 H7           0.4060     0.9850     3.2480 hc         1 8G5       0.032450
     23 H6          -0.0140    -0.5640     3.9980 hc         1 8G5       0.032450
     24 H8           2.8000     0.5330     3.6470 hc         1 8G5       0.021200
     25 H9           1.8890     0.4870     5.1670 hc         1 8G5       0.021200
     26 H11          3.4530    -1.4200     5.0160 hc         1 8G5       0.013700
     27 H10          1.7720    -1.9790     5.0150 hc         1 8G5       0.013700
     28 H13          3.5050    -1.5870     2.5490 hc         1 8G5       0.021200
     29 H12          3.0980    -3.1470     3.2850 hc         1 8G5       0.021200
     30 H14          0.7020    -2.7140     2.8850 hc         1 8G5       0.032450
     31 H15          1.6140    -2.6460     1.3670 hc         1 8G5       0.032450
     32 H           -0.6490    -1.7820     1.0690 hc         1 8G5       0.061700
     33 H1          -1.0280     1.9660     1.4040 h4         1 8G5       0.170000
@<TRIPOS>BOND
     1     1     2 1   
     2     1    12 1   
     3     1    18 1   
     4     1    19 1   
     5     2    10 2   
     6     2    11 1   
     7     3     5 1   
     8     3     9 1   
     9     3    11 1   
    10     3    12 1   
    11     4    15 1   
    12     4    20 1   
    13     4    21 1   
    14     5     6 1   
    15     5    22 1   
    16     5    23 1   
    17     6     7 1   
    18     6    24 1   
    19     6    25 1   
    20     7     8 1   
    21     7    26 1   
    22     7    27 1   
    23     8     9 1   
    24     8    28 1   
    25     8    29 1   
    26     9    30 1   
    27     9    31 1   
    28    12    13 1   
    29    12    32 1   
    30    13    14 1   
    31    13    17 2   
    32    14    15 2   
    33    15    16 1   
    34    16    17 1   
    35    17    33 1   
@<TRIPOS>SUBSTRUCTURE
     1 8G5         1 TEMP              0 ****  ****    0 ROOT
