@<TRIPOS>MOLECULE
molecule
   33    35     1     0     0
SMALL
bcc


@<TRIPOS>ATOM
      1 C4           0.0000     0.0000     0.0000 c3         1 8G5      -0.205400
      2 C5           1.5180     0.0000     0.0000 c          1 8G5       0.735600
      3 C6           0.9570    -0.7370     2.0920 c3         1 8G5       0.161800
      4 N1          -4.1870    -0.4310     4.2770 nv         1 8G5      -1.018500
      5 C7           0.7370    -0.0300     3.4280 c3         1 8G5      -0.080400
      6 C8           2.0500    -0.0050     4.2150 c3         1 8G5      -0.078400
      7 C9           2.5260    -1.4380     4.4570 c3         1 8G5      -0.081400
      8 C10          2.7580    -2.1330     3.1120 c3         1 8G5      -0.078400
      9 C11          1.4470    -2.1640     2.3230 c3         1 8G5      -0.080400
     10 O            2.2350     0.0000    -0.9720 o          1 8G5      -0.556500
     11 O1           1.9150     0.0000     1.2860 os         1 8G5      -0.405900
     12 C3          -0.3610    -0.7630     1.2950 c3         1 8G5      -0.121000
     13 C1          -1.4530    -0.0460     2.0480 cc         1 8G5       0.399600
     14 N           -2.3130    -0.6750     2.8300 nc         1 8G5      -0.725000
     15 C2          -3.2070     0.0530     3.4230 cd         1 8G5       0.713300
     16 S           -3.0000     1.6970     3.0010 ss         1 8G5      -0.239300
     17 C           -1.6260     1.2740     1.9850 cd         1 8G5      -0.199400
     18 H4          -0.3800    -0.5250    -0.8680 hc         1 8G5       0.085200
     19 H5          -0.3800     1.0140     0.0380 hc         1 8G5       0.085200
     20 H3          -4.8330    -1.1250     3.9550 hn         1 8G5       0.446800
     21 H2          -4.2610    -0.0720     5.2080 hn         1 8G5       0.446800
     22 H7           0.4060     0.9850     3.2480 hc         1 8G5       0.058950
     23 H6          -0.0140    -0.5640     3.9980 hc         1 8G5       0.058950
     24 H8           2.8000     0.5330     3.6470 hc         1 8G5       0.049950
     25 H9           1.8890     0.4870     5.1670 hc         1 8G5       0.049950
     26 H11          3.4530    -1.4200     5.0160 hc         1 8G5       0.041200
     27 H10          1.7720    -1.9790     5.0150 hc         1 8G5       0.041200
     28 H13          3.5050    -1.5870     2.5490 hc         1 8G5       0.049950
     29 H12          3.0980    -3.1470     3.2850 hc         1 8G5       0.049950
     30 H14          0.7020    -2.7140     2.8850 hc         1 8G5       0.058950
     31 H15          1.6140    -2.6460     1.3670 hc         1 8G5       0.058950
     32 H           -0.6490    -1.7820     1.0690 hc         1 8G5       0.091700
     33 H1          -1.0280     1.9660     1.4040 h4         1 8G5       0.184000
@<TRIPOS>BOND
     1     7     8 1
     2     7     6 1
     3     8     9 1
     4     9     3 1
     5     6     5 1
     6     5     3 1
     7     3    12 1
     8     3    11 1
     9    12     1 1
    10    12    13 1
    11    17    13 2
    12    17    16 1
    13    11     2 1
    14     1     2 1
    15    13    14 1
    16     2    10 2
    17    16    15 1
    18    14    15 2
    19    15     4 1
    20     1    18 1
    21     1    19 1
    22     4    20 1
    23     4    21 1
    24     5    22 1
    25     5    23 1
    26     6    24 1
    27     6    25 1
    28     7    26 1
    29     7    27 1
    30     8    28 1
    31     8    29 1
    32     9    30 1
    33     9    31 1
    34    12    32 1
    35    17    33 1
@<TRIPOS>SUBSTRUCTURE
     1 8G5         1 TEMP              0 ****  ****    0 ROOT
