@<TRIPOS>MOLECULE
molecule
   27    29     1     0     0
SMALL
bcc


@<TRIPOS>ATOM
      1 C10          0.0000     0.0000     0.0000 ca         1 8G6      -0.081000
      2 C11          0.0120    -0.0060     2.4150 ca         1 8G6      -0.081000
      3 C14          1.3790     0.0000     0.0000 ca         1 8G6      -0.126000
      4 C15          1.3910    -0.0000     2.4020 ca         1 8G6      -0.126000
      5 C7          -4.6510     2.2660     2.2860 cc         1 8G6      -0.363600
      6 C5          -0.6950     0.0010     1.2110 ca         1 8G6      -0.064000
      7 C16          2.0750     0.0000     1.1980 ca         1 8G6       0.044400
      8 C9          -3.5160     2.9880     2.6220 cc         1 8G6       0.410600
      9 C3          -4.2360     1.0670     1.7220 cd         1 8G6       0.400500
     10 C6          -2.8820    -1.0640     0.7180 cc         1 8G6      -0.313300
     11 C12         -4.2790    -1.0250     0.7390 cc         1 8G6       0.459200
     12 C2          -2.1720     0.0080     1.2190 cd         1 8G6       0.109700
     13 N4          -2.4520     2.2940     2.2880 nd         1 8G6      -0.571100
     14 N8          -4.9090     0.0180     1.2310 nd         1 8G6      -0.673000
     15 N1          -2.8650     1.0810     1.7250 na         1 8G6       0.045200
     16 Cl           3.8110    -0.0000     1.1890 cl         1 8G6      -0.101400
     17 H1          -0.5430     0.0020    -0.9370 ha         1 8G6       0.147000
     18 H2          -0.5220    -0.0050     3.3580 ha         1 8G6       0.147000
     19 H3           1.9200    -0.0000    -0.9390 ha         1 8G6       0.149500
     20 H4           1.9410    -0.0030     3.3360 ha         1 8G6       0.149500
     21 H5          -5.6730     2.6210     2.3460 ha         1 8G6       0.171000
     22 H6          -2.3630    -1.9240     0.3130 ha         1 8G6       0.162000
     23 H7          -4.8470    -1.8610     0.3490 h4         1 8G6       0.036100
     24 H8          -2.4820     4.6520     3.4560 hc         1 8G6       0.055033
     25 H9          -4.0470     4.3100     4.2050 hc         1 8G6       0.055033
     26 H10         -3.9780     5.0660     2.6070 hc         1 8G6       0.055033
     27 C13         -3.5050     4.3500     3.2680 c3         1 8G6      -0.094400
@<TRIPOS>BOND
     1    16     7 1   
     2     3     1 ar  
     3     3     7 ar  
     4     1     6 ar  
     5     7     4 ar  
     6     6     2 ar  
     7     6    12 1   
     8     4     2 ar  
     9    10    12 2   
    10    10    11 1   
    11    12    15 1   
    12    11    14 2   
    13    15     9 1   
    14    15    13 1   
    15    14     9 1   
    16     9     5 2   
    17    13     8 2   
    18     5     8 1   
    19     8    27 1   
    20     1    17 1   
    21     2    18 1   
    22     3    19 1   
    23     4    20 1   
    24     5    21 1   
    25    10    22 1   
    26    11    23 1   
    27    27    24 1   
    28    27    25 1   
    29    27    26 1   
@<TRIPOS>SUBSTRUCTURE
     1 8G6         1 TEMP              0 ****  ****    0 ROOT
