@<TRIPOS>MOLECULE
molecule
   16    17     1     0     0
SMALL
bcc


@<TRIPOS>ATOM
      1 C4           0.0000     0.0000     0.0000 ca         1 8G8      -0.158200
      2 C5           1.4090     0.0000     0.0000 ca         1 8G8       0.451800
      3 C6           1.3830     0.0020     2.2950 ca         1 8G8       0.788000
      4 N1          -0.3970    -0.0010    -1.2960 nc         1 8G8      -0.581100
      5 C7          -0.6610    -0.0030     1.2290 ca         1 8G8       0.533200
      6 N2           2.0530     0.0000     1.1600 nb         1 8G8      -0.738000
      7 N3           0.0610    -0.0070     2.3360 nb         1 8G8      -0.736000
      8 Cl           2.2680     0.0020     3.7890 cl         1 8G8      -0.102000
      9 C3           0.6490    -0.0020    -2.0700 cd         1 8G8       0.441700
     10 N            1.7870    -0.0020    -1.3190 na         1 8G8      -0.252000
     11 C1           3.1610    -0.0030    -1.8270 c3         1 8G8       0.035600
     12 H8          -1.7440    -0.0100     1.2750 h4         1 8G8       0.049100
     13 H7           0.6200    -0.0010    -3.1530 h5         1 8G8       0.083800
     14 H3           3.2630    -0.7660    -2.5890 h1         1 8G8       0.061367
     15 H1           3.3880     0.9670    -2.2540 h1         1 8G8       0.061367
     16 H2           3.8460    -0.2090    -1.0150 h1         1 8G8       0.061367
@<TRIPOS>BOND
     1     8     3 1
     2     7     3 ar
     3     7     5 ar
     4     3     6 ar
     5     5     1 ar
     6     6     2 ar
     7     1     2 ar
     8     1     4 1
     9     2    10 1
    10     4     9 2
    11    10     9 1
    12    10    11 1
    13     5    12 1
    14     9    13 1
    15    11    14 1
    16    11    15 1
    17    11    16 1
@<TRIPOS>SUBSTRUCTURE
     1 8G8         1 TEMP              0 ****  ****    0 ROOT
