@<TRIPOS>MOLECULE
molecule
   21    21     1     0     0
SMALL
bcc


@<TRIPOS>ATOM
      1 C4           0.0000     0.0000     0.0000 ca         1 8GB       0.002400
      2 C5           1.3870     0.0000     0.0000 ca         1 8GB      -0.065000
      3 C6           2.0870     0.0000     1.1900 ca         1 8GB      -0.143300
      4 C7           1.4070     0.0000     2.3980 ca         1 8GB       0.184100
      5 C8           3.5950    -0.0020     1.1760 c3         1 8GB       0.103300
      6 Cl1         -0.8630    -0.0070    -1.5060 cl         1 8GB      -0.096400
      7 C3          -0.6950     0.0000     1.1900 ca         1 8GB      -0.067000
      8 Cl           4.1960     1.6980     1.1700 cl         1 8GB      -0.179400
      9 O1           2.0930     0.0010     3.5670 oh         1 8GB      -0.491100
     10 C2           0.0020     0.0000     2.4050 ca         1 8GB      -0.194600
     11 C1          -0.7310     0.0000     3.6760 c          1 8GB       0.572700
     12 O           -0.1240     0.0000     4.7260 o          1 8GB      -0.503100
     13 C           -2.2380     0.0010     3.6780 c3         1 8GB      -0.191100
     14 H4           1.9250    -0.0000    -0.9400 ha         1 8GB       0.153000
     15 H6           3.9630    -0.5120     2.0580 h1         1 8GB       0.071700
     16 H7           3.9480    -0.5130     0.2890 h1         1 8GB       0.071700
     17 H3          -1.7780     0.0000     1.1850 ha         1 8GB       0.153000
     18 H5           2.3250    -0.8840     3.7960 ho         1 8GB       0.430000
     19 H1          -2.6000    -0.8830     3.1670 hc         1 8GB       0.063367
     20 H           -2.5980     0.0010     4.6990 hc         1 8GB       0.063367
     21 H2          -2.5990     0.8860     3.1670 hc         1 8GB       0.063367
@<TRIPOS>BOND
     1     5     8 1   
     2     5     3 1   
     3     2     3 ar  
     4     2     1 ar  
     5     6     1 1   
     6     3     4 ar  
     7     1     7 ar  
     8     4     9 1   
     9     4    10 ar  
    10     7    10 ar  
    11    10    11 1   
    12    11    12 2   
    13    11    13 1   
    14     2    14 1   
    15     5    15 1   
    16     5    16 1   
    17     7    17 1   
    18     9    18 1   
    19    13    19 1   
    20    13    20 1   
    21    13    21 1   
@<TRIPOS>SUBSTRUCTURE
     1 8GB         1 TEMP              0 ****  ****    0 ROOT
