@<TRIPOS>MOLECULE
8GC
   20    20     1     0     0
SMALL
bcc


@<TRIPOS>ATOM
      1 C2           0.0000     0.0000     0.0000 c          1 8GC       0.348700
      2 C4           1.4790     0.0000     0.0000 ca         1 8GC      -0.183600
      3 C5           2.1900     0.0000     1.2050 ca         1 8GC      -0.008000
      4 C6           3.5740    -0.0010     1.1500 ca         1 8GC      -0.003000
      5 C7           4.2020    -0.0010    -0.0830 ca         1 8GC      -0.180300
      6 C10          2.1880    -0.0060    -1.2030 ca         1 8GC      -0.154300
      7 N8           3.5040     0.0000    -1.2030 na         1 8GC       0.679900
      8 N3          -0.6730    -0.0000     1.1670 nz         1 8GC       0.210600
      9 O1          -0.6080     0.0060    -1.0530 o          1 8GC      -0.351100
     10 H1           1.6720    -0.0000     2.1560 ha         1 8GC       0.129000
     11 H2           4.1590    -0.0010     2.0620 ha         1 8GC       0.178000
     12 H3           5.2840    -0.0020    -0.1300 h4         1 8GC       0.197000
     13 H4           3.9970    -0.9160    -3.0190 h1         1 8GC       0.083033
     14 H5           3.8950     0.8490    -3.0750 h1         1 8GC       0.083033
     15 H6           5.2820     0.0670    -2.3050 h1         1 8GC       0.083033
     16 H7           1.6510    -0.0050    -2.1440 h4         1 8GC       0.199000
     17 H8          -0.4320     0.8180     1.6920 hn         1 8GC       0.261467
     18 H9          -1.6570    -0.0010     0.9850 hn         1 8GC       0.261467
     19 C9           4.2160     0.0000    -2.4840 c3         1 8GC      -0.096400
     20 H33         -0.4310    -0.8170     1.6920 hn         1 8GC       0.261467
@<TRIPOS>BOND
     1     1     2 1   
     2     1     8 1   
     3     1     9 2   
     4     2     3 ar  
     5     2     6 ar  
     6     3     4 ar  
     7     3    10 1   
     8     4     5 ar  
     9     4    11 1   
    10     5     7 2   
    11     5    12 1   
    12     6     7 1   
    13     6    16 1   
    14     7    19 1   
    15     8    17 1   
    16     8    18 1   
    17     8    20 1   
    18    13    19 1   
    19    14    19 1   
    20    15    19 1   
@<TRIPOS>SUBSTRUCTURE
     1 8GC         1 TEMP              0 ****  ****    0 ROOT
