@<TRIPOS>MOLECULE
molecule
   32    34     1     0     0
SMALL
bcc


@<TRIPOS>ATOM
      1 S1           0.0000     0.0000     0.0000 sy         1 8GE       1.223200
      2 O1           1.4210     0.0000     0.0000 o          1 8GE      -0.521800
      3 O2          -0.7760     0.0000     1.1910 o          1 8GE      -0.521800
      4 N3          -0.4670     1.3340    -0.8630 nz         1 8GE      -0.805500
      5 C4          -0.4980    -1.4170    -0.9200 ca         1 8GE      -0.362500
      6 C5           0.3630    -1.9720    -1.8500 ca         1 8GE      -0.016000
      7 C6          -0.0210    -3.0820    -2.5740 ca         1 8GE      -0.140500
      8 C7          -1.2800    -3.6450    -2.3660 ca         1 8GE       0.100200
      9 C8          -2.1440    -3.0820    -1.4250 ca         1 8GE      -0.140500
     10 C9          -1.7460    -1.9750    -0.7040 ca         1 8GE      -0.016000
     11 C3          -3.4930    -8.5030    -5.2470 ca         1 8GE      -0.147000
     12 C2          -2.2600    -8.4680    -5.8860 ca         1 8GE      -0.076000
     13 C41         -3.8080    -7.5750    -4.2970 ca         1 8GE      -0.064000
     14 C51         -2.8830    -6.5810    -3.9630 ca         1 8GE      -0.123800
     15 C91         -2.8940    -5.4640    -3.0190 cc         1 8GE      -0.108200
     16 C61         -1.6320    -6.5410    -4.6070 ca         1 8GE      -0.007200
     17 C1          -1.3320    -7.5010    -5.5690 ca         1 8GE      -0.152000
     18 N7          -0.9350    -5.4730    -4.0890 na         1 8GE      -0.177400
     19 C81         -1.6990    -4.8360    -3.1380 cd         1 8GE      -0.072300
     20 H1          -0.2000     2.1620    -0.3680 hn         1 8GE       0.490467
     21 H2          -1.4600     1.3230    -0.9820 hn         1 8GE       0.490467
     22 H3           1.3400    -1.5330    -2.0110 ha         1 8GE       0.155000
     23 H4           0.6530    -3.5150    -3.3030 ha         1 8GE       0.162500
     24 H5          -3.1220    -3.5160    -1.2560 ha         1 8GE       0.162500
     25 H6          -2.4150    -1.5370     0.0270 ha         1 8GE       0.155000
     26 H9          -4.7720    -7.6090    -3.8030 ha         1 8GE       0.140000
     27 H10         -3.7590    -5.0910    -2.4830 ha         1 8GE       0.158000
     28 H11         -0.3730    -7.4820    -6.0730 ha         1 8GE       0.136000
     29 H12         -0.0110    -5.2020    -4.3620 hn         1 8GE       0.299700
     30 H7          -4.2120    -9.2700    -5.5090 ha         1 8GE       0.144000
     31 H33         -0.0270     1.3210    -1.7610 hn         1 8GE       0.490467
     32 H8          -2.0240    -9.2110    -6.6380 ha         1 8GE       0.145000
@<TRIPOS>BOND
     1    13    11 ar  
     2    13    14 ar  
     3    11    12 ar  
     4    12    17 ar  
     5    14    15 1   
     6    14    16 ar  
     7    15    19 2   
     8    17    16 ar  
     9    16    18 1   
    10    19    18 1   
    11    19     8 1   
    12     8     7 ar  
    13     8     9 ar  
    14     7     6 ar  
    15     9    10 ar  
    16     6     5 ar  
    17    10     5 ar  
    18     5     1 1   
    19     4     1 1   
    20     3     1 2   
    21     1     2 2   
    22     4    20 1   
    23     4    21 1   
    24     6    22 1   
    25     7    23 1   
    26     9    24 1   
    27    10    25 1   
    28    11    30 1   
    29    12    32 1   
    30    13    26 1   
    31    15    27 1   
    32    17    28 1   
    33    18    29 1   
    34    31     4 1   
@<TRIPOS>SUBSTRUCTURE
     1 8GE         1 TEMP              0 ****  ****    0 ROOT
