@<TRIPOS>MOLECULE
8GE
   32    34     1     0     0
SMALL
bcc


@<TRIPOS>ATOM
      1 S1           0.0000     0.0000     0.0000 sy         1 8GE       0.933200
      2 O1           1.4210     0.0000     0.0000 o          1 8GE      -0.497800
      3 O2          -0.7760     0.0000     1.1910 o          1 8GE      -0.497800
      4 N3          -0.4670     1.3340    -0.8630 nz         1 8GE      -0.131500
      5 C4          -0.4980    -1.4170    -0.9200 ca         1 8GE      -0.253500
      6 C5           0.3630    -1.9720    -1.8500 ca         1 8GE       0.028000
      7 C6          -0.0210    -3.0820    -2.5740 ca         1 8GE      -0.129500
      8 C7          -1.2800    -3.6450    -2.3660 ca         1 8GE       0.127200
      9 C8          -2.1440    -3.0820    -1.4250 ca         1 8GE      -0.129500
     10 C9          -1.7460    -1.9750    -0.7040 ca         1 8GE       0.028000
     11 C3          -3.4930    -8.5030    -5.2470 ca         1 8GE      -0.118000
     12 C2          -2.2600    -8.4680    -5.8860 ca         1 8GE      -0.050000
     13 C41         -3.8080    -7.5750    -4.2970 ca         1 8GE      -0.030000
     14 C51         -2.8830    -6.5810    -3.9630 ca         1 8GE      -0.120800
     15 C91         -2.8940    -5.4640    -3.0190 cc         1 8GE      -0.080200
     16 C61         -1.6320    -6.5410    -4.6070 ca         1 8GE      -0.200200
     17 C1          -1.3320    -7.5010    -5.5690 ca         1 8GE      -0.111000
     18 N7          -0.9350    -5.4730    -4.0890 na         1 8GE       0.367600
     19 C81         -1.6990    -4.8360    -3.1380 cd         1 8GE      -0.268300
     20 H1          -0.2000     2.1620    -0.3680 hn         1 8GE       0.312467
     21 H2          -1.4600     1.3230    -0.9820 hn         1 8GE       0.312467
     22 H3           1.3400    -1.5330    -2.0110 ha         1 8GE       0.123500
     23 H4           0.6530    -3.5150    -3.3030 ha         1 8GE       0.133000
     24 H5          -3.1220    -3.5160    -1.2560 ha         1 8GE       0.133000
     25 H6          -2.4150    -1.5370     0.0270 ha         1 8GE       0.123500
     26 H9          -4.7720    -7.6090    -3.8030 ha         1 8GE       0.107000
     27 H10         -3.7590    -5.0910    -2.4830 ha         1 8GE       0.130000
     28 H11         -0.3730    -7.4820    -6.0730 ha         1 8GE       0.107000
     29 H12         -0.0110    -5.2020    -4.3620 hn         1 8GE       0.117700
     30 H7          -4.2120    -9.2700    -5.5090 ha         1 8GE       0.114000
     31 H33         -0.0270     1.3210    -1.7610 hn         1 8GE       0.312467
     32 H8          -2.0240    -9.2110    -6.6380 ha         1 8GE       0.110000
@<TRIPOS>BOND
     1     1     2 2   
     2     1     3 2   
     3     1     4 1   
     4     1     5 1   
     5     4    20 1   
     6     4    21 1   
     7     4    31 1   
     8     5     6 ar  
     9     5    10 ar  
    10     6     7 ar  
    11     6    22 1   
    12     7     8 ar  
    13     7    23 1   
    14     8     9 ar  
    15     8    19 1   
    16     9    10 ar  
    17     9    24 1   
    18    10    25 1   
    19    11    12 ar  
    20    11    13 ar  
    21    11    30 1   
    22    12    17 ar  
    23    12    32 1   
    24    13    14 ar  
    25    13    26 1   
    26    14    15 1   
    27    14    16 ar  
    28    15    19 2   
    29    15    27 1   
    30    16    17 ar  
    31    16    18 1   
    32    17    28 1   
    33    18    19 1   
    34    18    29 1   
@<TRIPOS>SUBSTRUCTURE
     1 8GE         1 TEMP              0 ****  ****    0 ROOT
