@<TRIPOS>MOLECULE
molecule
   15    15     1     0     0
SMALL
bcc


@<TRIPOS>ATOM
      1 N1           0.0000     0.0000     0.0000 nb         1 8GF      -0.747000
      2 C2           1.3170     0.0000     0.0000 ca         1 8GF       0.696300
      3 C4           1.3990     0.0000     2.2990 ca         1 8GF       0.719200
      4 C5           0.0030     0.0000     2.3340 ca         1 8GF      -0.395600
      5 C6          -0.6830     0.0000     1.1360 ca         1 8GF       0.460200
      6 CAC          2.0490    -0.0000    -1.3170 c3         1 8GF      -0.123400
      7 N3           2.0120     0.0000     1.1190 nb         1 8GF      -0.762000
      8 NAF          2.1330     0.0000     3.4740 nv         1 8GF      -1.083500
      9 H1          -0.5280     0.0000     3.2790 ha         1 8GF       0.149000
     10 H2          -1.7660    -0.0000     1.1250 h4         1 8GF       0.028100
     11 H3           2.5520    -0.9500    -1.4510 hc         1 8GF       0.059367
     12 H4           1.3420     0.1510    -2.1240 hc         1 8GF       0.059367
     13 H5           2.7810     0.7990    -1.3240 hc         1 8GF       0.059367
     14 H6           2.4110    -0.8670     3.8900 hn         1 8GF       0.440800
     15 H7           2.4110     0.8670     3.8900 hn         1 8GF       0.440800
@<TRIPOS>BOND
     1     5     1 ar
     2     5     4 ar
     3     1     2 ar
     4     4     3 ar
     5     2     6 1
     6     2     7 ar
     7     3     7 ar
     8     3     8 1
     9     4     9 1
    10     5    10 1
    11     6    11 1
    12     6    12 1
    13     6    13 1
    14     8    14 1
    15     8    15 1
@<TRIPOS>SUBSTRUCTURE
     1 8GF         1 TEMP              0 ****  ****    0 ROOT
