@<TRIPOS>MOLECULE
molecule
   38    40     1     0     0
SMALL
bcc


@<TRIPOS>ATOM
      1 C2           0.0000     0.0000     0.0000 ca         1 8GH      -0.031500
      2 C3           1.3800     0.0000     0.0000 ca         1 8GH      -0.140500
      3 C4           2.0740     0.0000     1.2090 cp         1 8GH       0.091000
      4 C5           1.3690     0.0030     2.4110 ca         1 8GH      -0.140500
      5 C6          -0.0100     0.0020     2.3990 ca         1 8GH      -0.031500
      6 C17          9.1750     1.9140     2.1340 cc         1 8GH      -0.112300
      7 C16          9.3770     3.2060     1.7860 cd         1 8GH      -0.342300
      8 C1          -0.6950     0.0020     1.1970 ca         1 8GH      -0.342500
      9 C7           3.5580    -0.0010     1.2160 cp         1 8GH      -0.092000
     10 C8           4.2630    -0.0020     0.0140 ca         1 8GH      -0.096000
     11 C9           5.6430    -0.0030     0.0260 ca         1 8GH      -0.100000
     12 C10          6.3270    -0.0040     1.2280 ca         1 8GH      -0.067300
     13 C11          5.6320    -0.0020     2.4240 ca         1 8GH      -0.100000
     14 C12          4.2520     0.0050     2.4250 ca         1 8GH      -0.096000
     15 C13          7.8340    -0.0060     1.2350 c3         1 8GH       0.122600
     16 C15          8.6230     3.4660     0.6370 cd         1 8GH       0.342200
     17 S1          -2.4560     0.0100     1.1890 sy         1 8GH       1.226200
     18 N13          8.3240     1.3740     1.2360 na         1 8GH       0.053400
     19 N14          7.9920     2.3680     0.3070 nc         1 8GH      -0.520800
     20 O18         -2.8610     0.5540     2.4360 o          1 8GH      -0.522300
     21 O19         -2.8490     0.5580    -0.0620 o          1 8GH      -0.522300
     22 N20         -2.9530    -1.5710     1.1840 nz         1 8GH      -0.805500
     23 H1          -0.5400     0.0040    -0.9390 ha         1 8GH       0.161500
     24 H2           1.9220    -0.0660    -0.9360 ha         1 8GH       0.165000
     25 H3           1.9030    -0.0580     3.3520 ha         1 8GH       0.165000
     26 H4          -0.3820     0.1080     3.4110 ha         1 8GH       0.161500
     27 H7           3.7280    -0.0010    -0.9280 ha         1 8GH       0.135000
     28 H8           6.1920    -0.0040    -0.9090 ha         1 8GH       0.152000
     29 H9           6.1720     0.0000     3.3630 ha         1 8GH       0.152000
     30 H10          3.7090     0.0070     3.3620 ha         1 8GH       0.135000
     31 H11          8.1900    -0.5160     2.1220 h1         1 8GH       0.071200
     32 H12          8.1990    -0.5180     0.3530 h1         1 8GH       0.071200
     33 H13          8.5700     4.4120     0.1120 h4         1 8GH       0.053100
     34 H14         -2.6080    -2.0260     0.3620 hn         1 8GH       0.490800
     35 H15         -3.9540    -1.6050     1.1900 hn         1 8GH       0.490800
     36 H5           9.6180     1.4040     2.9810 h4         1 8GH       0.171000
     37 H203        -2.6060    -2.0320     2.0010 hn         1 8GH       0.490800
     38 H6          10.0100     3.9140     2.3070 ha         1 8GH       0.162000
@<TRIPOS>BOND
     1     6     7 2   
     2     6    18 1   
     3     7    16 1   
     4    18    15 1   
     5    18    19 1   
     6    13    14 ar  
     7    13    12 ar  
     8    15    12 1   
     9    16    19 2   
    10    14     9 ar  
    11    12    11 ar  
    12     9     3 1   
    13     9    10 ar  
    14    11    10 ar  
    15     3     4 ar  
    16     3     2 ar  
    17     4     5 ar  
    18     2     1 ar  
    19     5     8 ar  
    20     1     8 ar  
    21     8    17 1   
    22    20    17 2   
    23    22    17 1   
    24    17    21 2   
    25     1    23 1   
    26     2    24 1   
    27     4    25 1   
    28     5    26 1   
    29     6    36 1   
    30     7    38 1   
    31    10    27 1   
    32    11    28 1   
    33    13    29 1   
    34    14    30 1   
    35    15    31 1   
    36    15    32 1   
    37    16    33 1   
    38    22    34 1   
    39    22    35 1   
    40    37    22 1   
@<TRIPOS>SUBSTRUCTURE
     1 8GH         1 TEMP              0 ****  ****    0 ROOT
