@<TRIPOS>MOLECULE
8GH
   38    40     1     0     0
SMALL
bcc


@<TRIPOS>ATOM
      1 C2           0.0000     0.0000     0.0000 ca         1 8GH       0.010500
      2 C3           1.3800     0.0000     0.0000 ca         1 8GH      -0.127000
      3 C4           2.0740     0.0000     1.2090 cp         1 8GH       0.103000
      4 C5           1.3690     0.0030     2.4110 ca         1 8GH      -0.127000
      5 C6          -0.0100     0.0020     2.3990 ca         1 8GH       0.010500
      6 C17          9.1750     1.9140     2.1340 cc         1 8GH      -0.245300
      7 C16          9.3770     3.2060     1.7860 cd         1 8GH      -0.323300
      8 C1          -0.6950     0.0020     1.1970 ca         1 8GH      -0.226500
      9 C7           3.5580    -0.0010     1.2160 cp         1 8GH      -0.099000
     10 C8           4.2630    -0.0020     0.0140 ca         1 8GH      -0.070000
     11 C9           5.6430    -0.0030     0.0260 ca         1 8GH      -0.068500
     12 C10          6.3270    -0.0040     1.2280 ca         1 8GH      -0.078300
     13 C11          5.6320    -0.0020     2.4240 ca         1 8GH      -0.068500
     14 C12          4.2520     0.0050     2.4250 ca         1 8GH      -0.070000
     15 C13          7.8340    -0.0060     1.2350 c3         1 8GH       0.053600
     16 C15          8.6230     3.4660     0.6370 cd         1 8GH       0.404200
     17 S1          -2.4560     0.0100     1.1890 sy         1 8GH       0.934200
     18 N13          8.3240     1.3740     1.2360 na         1 8GH       0.470400
     19 N14          7.9920     2.3680     0.3070 nc         1 8GH      -0.659800
     20 O18         -2.8610     0.5540     2.4360 o          1 8GH      -0.498800
     21 O19         -2.8490     0.5580    -0.0620 o          1 8GH      -0.498800
     22 N20         -2.9530    -1.5710     1.1840 nz         1 8GH      -0.132500
     23 H1          -0.5400     0.0040    -0.9390 ha         1 8GH       0.130500
     24 H2           1.9220    -0.0660    -0.9360 ha         1 8GH       0.138500
     25 H3           1.9030    -0.0580     3.3520 ha         1 8GH       0.138500
     26 H4          -0.3820     0.1080     3.4110 ha         1 8GH       0.130500
     27 H7           3.7280    -0.0010    -0.9280 ha         1 8GH       0.110000
     28 H8           6.1920    -0.0040    -0.9090 ha         1 8GH       0.121500
     29 H9           6.1720     0.0000     3.3630 ha         1 8GH       0.121500
     30 H10          3.7090     0.0070     3.3620 ha         1 8GH       0.110000
     31 H11          8.1900    -0.5160     2.1220 h1         1 8GH       0.037200
     32 H12          8.1990    -0.5180     0.3530 h1         1 8GH       0.037200
     33 H13          8.5700     4.4120     0.1120 h4         1 8GH       0.007100
     34 H14         -2.6080    -2.0260     0.3620 hn         1 8GH       0.312133
     35 H15         -3.9540    -1.6050     1.1900 hn         1 8GH       0.312133
     36 H5           9.6180     1.4040     2.9810 h4         1 8GH       0.145000
     37 H203        -2.6060    -2.0320     2.0010 hn         1 8GH       0.312133
     38 H6          10.0100     3.9140     2.3070 ha         1 8GH       0.139000
@<TRIPOS>BOND
     1     1     2 ar  
     2     1     8 ar  
     3     1    23 1   
     4     2     3 ar  
     5     2    24 1   
     6     3     4 ar  
     7     3     9 1   
     8     4     5 ar  
     9     4    25 1   
    10     5     8 ar  
    11     5    26 1   
    12     6     7 2   
    13     6    18 1   
    14     6    36 1   
    15     7    16 1   
    16     7    38 1   
    17     8    17 1   
    18     9    10 ar  
    19     9    14 ar  
    20    10    11 ar  
    21    10    27 1   
    22    11    12 ar  
    23    11    28 1   
    24    12    13 ar  
    25    12    15 1   
    26    13    14 ar  
    27    13    29 1   
    28    14    30 1   
    29    15    18 1   
    30    15    31 1   
    31    15    32 1   
    32    16    19 2   
    33    16    33 1   
    34    17    20 2   
    35    17    21 2   
    36    17    22 1   
    37    18    19 1   
    38    22    34 1   
    39    22    35 1   
    40    22    37 1   
@<TRIPOS>SUBSTRUCTURE
     1 8GH         1 TEMP              0 ****  ****    0 ROOT
