@<TRIPOS>MOLECULE
8GJ
   49    50     1     0     0
SMALL
bcc


@<TRIPOS>ATOM
      1 C10          0.0000     0.0000     0.0000 cc         1 8GJ       0.062800
      2 C15          2.3690    -1.4460     4.0890 c3         1 8GJ      -0.008400
      3 C17          4.5190    -0.6400     5.0740 c3         1 8GJ       0.032900
      4 C26          2.0690     0.0000     1.2240 c          1 8GJ       0.587700
      5 C28          1.3880     0.0000     0.0000 cd         1 8GJ      -0.220200
      6 C01         -3.4620    -1.2310    -5.2220 c3         1 8GJ       0.244700
      7 C03         -2.1630     0.0020    -3.6610 ca         1 8GJ       0.183100
      8 C04         -2.0770    -1.1610    -2.9060 ca         1 8GJ      -0.227000
      9 C05         -1.3760    -1.1650    -1.7190 ca         1 8GJ      -0.013000
     10 C06         -0.7520     0.0010    -1.2740 ca         1 8GJ      -0.136800
     11 C07         -0.8390     1.1700    -2.0360 ca         1 8GJ       0.165900
     12 C09         -1.5440     1.1660    -3.2230 ca         1 8GJ      -0.179000
     13 C11         -0.6820    -0.0080     1.2380 cc         1 8GJ      -0.195000
     14 C12          0.0200    -0.0080     2.3900 cd         1 8GJ      -0.134400
     15 C16          3.2480    -1.4480     5.3410 c3         1 8GJ      -0.106200
     16 C18          3.6180    -2.8660     5.6920 c          1 8GJ       0.583100
     17 F08         -0.2380     2.3020    -1.6100 f          1 8GJ      -0.121900
     18 N13          1.3800    -0.0020     2.3810 n          1 8GJ       0.131000
     19 N20          4.1260    -3.1480     6.9080 ns         1 8GJ      -0.081400
     20 O02         -2.8500    -0.0010    -4.8320 os         1 8GJ      -0.303900
     21 O19          3.4600    -3.7530     4.8800 o          1 8GJ      -0.608100
     22 O21          4.4740    -4.4810     7.2380 oh         1 8GJ      -0.439100
     23 O27          3.2900    -0.0000     1.2430 o          1 8GJ      -0.710500
     24 S22          2.3370    -0.7020     6.7210 s6         1 8GJ       0.803000
     25 H1           1.4260    -1.9330     4.3080 hc         1 8GJ       0.045200
     26 H2           2.8740    -1.9790     3.2920 hc         1 8GJ       0.045200
     27 H3           4.2950     0.4170     5.1420 hc         1 8GJ       0.027700
     28 H4           4.8900    -0.8680     4.0820 hc         1 8GJ       0.027700
     29 H5           5.2720    -0.8980     5.8080 hc         1 8GJ       0.027700
     30 H6           1.9380     0.0010    -0.9340 ha         1 8GJ       0.142000
     31 H7          -3.9790    -1.0940    -6.1650 h1         1 8GJ      -0.000633
     32 H8          -4.1710    -1.5380    -4.4630 h1         1 8GJ      -0.000633
     33 H9          -2.7010    -1.9940    -5.3350 h1         1 8GJ      -0.000633
     34 H10         -2.5610    -2.0670    -3.2510 ha         1 8GJ       0.126000
     35 H11         -1.3110    -2.0730    -1.1320 ha         1 8GJ       0.110000
     36 H12         -1.6130     2.0710    -3.8150 ha         1 8GJ       0.135000
     37 H13         -1.7650    -0.0110     1.2620 ha         1 8GJ       0.125000
     38 H14         -0.5070    -0.0120     3.3360 h4         1 8GJ       0.124000
     39 H15          1.5180     0.5030     4.4060 h1         1 8GJ       0.078200
     40 H16          3.0530     0.5130     3.5260 h1         1 8GJ       0.078200
     41 H17          0.0940    -1.3260     6.1260 h1         1 8GJ       0.070367
     42 H18          1.0930    -2.7430     6.4770 h1         1 8GJ       0.070367
     43 H19          0.4660    -1.7530     7.8020 h1         1 8GJ       0.070367
     44 H20          4.2940    -2.4110     7.5630 hn         1 8GJ       0.214500
     45 H21          5.0730    -4.4780     7.9660 ho         1 8GJ       0.398000
     46 C14          2.1080    -0.0020     3.6510 c3         1 8GJ      -0.058000
     47 C23          0.8480    -1.7350     6.7880 c3         1 8GJ       0.009700
     48 O24          3.0810    -0.9020     7.9150 o          1 8GJ      -0.587300
     49 O25          1.9560     0.6170     6.3520 o          1 8GJ      -0.587300
@<TRIPOS>BOND
     1     1     5 2   
     2     1    10 1   
     3     1    13 1   
     4     2    15 1   
     5     2    25 1   
     6     2    26 1   
     7     2    46 1   
     8     3    15 1   
     9     3    27 1   
    10     3    28 1   
    11     3    29 1   
    12     4     5 1   
    13     4    18 1   
    14     4    23 2   
    15     5    30 1   
    16     6    20 1   
    17     6    31 1   
    18     6    32 1   
    19     6    33 1   
    20     7     8 ar  
    21     7    12 ar  
    22     7    20 1   
    23     8     9 ar  
    24     8    34 1   
    25     9    10 ar  
    26     9    35 1   
    27    10    11 ar  
    28    11    12 ar  
    29    11    17 1   
    30    12    36 1   
    31    13    14 2   
    32    13    37 1   
    33    14    18 1   
    34    14    38 1   
    35    15    16 1   
    36    15    24 1   
    37    16    19 1   
    38    16    21 2   
    39    18    46 1   
    40    19    22 1   
    41    19    44 1   
    42    22    45 1   
    43    24    47 1   
    44    24    48 2   
    45    24    49 2   
    46    39    46 1   
    47    40    46 1   
    48    41    47 1   
    49    42    47 1   
    50    43    47 1   
@<TRIPOS>SUBSTRUCTURE
     1 8GJ         1 TEMP              0 ****  ****    0 ROOT
