@<TRIPOS>MOLECULE
molecule
   23    24     1     0     0
SMALL
bcc


@<TRIPOS>ATOM
      1 C1           0.0000     0.0000     0.0000 c          1 8GK       0.696700
      2 C2           1.4740     0.0000     0.0000 ca         1 8GK      -0.130600
      3 C3           2.2210     0.0000     1.2560 ca         1 8GK       0.005000
      4 C4           3.6360    -0.0010     1.2110 ca         1 8GK      -0.045000
      5 C5           4.2880    -0.0030    -0.0340 ca         1 8GK      -0.081000
      6 C6           3.5720    -0.0030    -1.1920 ca         1 8GK      -0.146000
      7 C7           2.1830    -0.0070    -1.1940 ca         1 8GK      -0.096000
      8 C8           4.3610    -0.0010     2.4150 ca         1 8GK      -0.123000
      9 C9           3.6940    -0.0010     3.6020 ca         1 8GK      -0.120000
     10 C10          2.3030    -0.0000     3.6430 ca         1 8GK      -0.124000
     11 C11          1.5680     0.0010     2.4940 ca         1 8GK      -0.115000
     12 O12         -0.6080    -0.1000     1.0480 o          1 8GK      -0.582100
     13 N13         -0.6740     0.1170    -1.1620 ns         1 8GK      -0.469400
     14 O14         -2.0900     0.1180    -1.1620 oh         1 8GK      -0.360100
     15 H1           5.3700     0.0000    -0.0730 ha         1 8GK       0.134000
     16 H2           4.1000    -0.0080    -2.1380 ha         1 8GK       0.131000
     17 H3           1.6480    -0.0070    -2.1360 ha         1 8GK       0.119000
     18 H4           5.4440    -0.0020     2.3980 ha         1 8GK       0.133000
     19 H5           4.2550    -0.0020     4.5280 ha         1 8GK       0.129000
     20 H6           1.7970     0.0000     4.6010 ha         1 8GK       0.134000
     21 H7           0.4850     0.0010     2.5400 ha         1 8GK       0.191000
     22 H8          -0.1740     0.2340    -2.0210 hn         1 8GK       0.321500
     23 H9          -2.4040     0.1850    -2.0480 ho         1 8GK       0.399000
@<TRIPOS>BOND
     1     5     6 ar  
     2     5     4 ar  
     3     6     7 ar  
     4     8     4 ar  
     5     8     9 ar  
     6     4     3 ar  
     7     7     2 ar  
     8     9    10 ar  
     9     3     2 ar  
    10     3    11 ar  
    11     2     1 1   
    12    10    11 ar  
    13    12     1 2   
    14     1    13 1   
    15    13    14 1   
    16     5    15 1   
    17     6    16 1   
    18     7    17 1   
    19     8    18 1   
    20     9    19 1   
    21    10    20 1   
    22    11    21 1   
    23    13    22 1   
    24    14    23 1   
@<TRIPOS>SUBSTRUCTURE
     1 8GK         1 TEMP              0 ****  ****    0 ROOT
