@<TRIPOS>MOLECULE
8GK
   23    24     1     0     0
SMALL
bcc


@<TRIPOS>ATOM
      1 C1           0.0000     0.0000     0.0000 c          1 8GK       0.606700
      2 C2           1.4740     0.0000     0.0000 ca         1 8GK      -0.138600
      3 C3           2.2210     0.0000     1.2560 ca         1 8GK       0.016000
      4 C4           3.6360    -0.0010     1.2110 ca         1 8GK      -0.051000
      5 C5           4.2880    -0.0030    -0.0340 ca         1 8GK      -0.051000
      6 C6           3.5720    -0.0030    -1.1920 ca         1 8GK      -0.123000
      7 C7           2.1830    -0.0070    -1.1940 ca         1 8GK      -0.077000
      8 C8           4.3610    -0.0010     2.4150 ca         1 8GK      -0.096000
      9 C9           3.6940    -0.0010     3.6020 ca         1 8GK      -0.095000
     10 C10          2.3030    -0.0000     3.6430 ca         1 8GK      -0.095000
     11 C11          1.5680     0.0010     2.4940 ca         1 8GK      -0.110000
     12 O12         -0.6080    -0.1000     1.0480 o          1 8GK      -0.626100
     13 N13         -0.6740     0.1170    -1.1620 ns         1 8GK      -0.059400
     14 O14         -2.0900     0.1180    -1.1620 oh         1 8GK      -0.437100
     15 H1           5.3700     0.0000    -0.0730 ha         1 8GK       0.104000
     16 H2           4.1000    -0.0080    -2.1380 ha         1 8GK       0.103000
     17 H3           1.6480    -0.0070    -2.1360 ha         1 8GK       0.094000
     18 H4           5.4440    -0.0020     2.3980 ha         1 8GK       0.105000
     19 H5           4.2550    -0.0020     4.5280 ha         1 8GK       0.100000
     20 H6           1.7970     0.0000     4.6010 ha         1 8GK       0.103000
     21 H7           0.4850     0.0010     2.5400 ha         1 8GK       0.173000
     22 H8          -0.1740     0.2340    -2.0210 hn         1 8GK       0.161500
     23 H9          -2.4040     0.1850    -2.0480 ho         1 8GK       0.392000
@<TRIPOS>BOND
     1     1     2 1   
     2     1    12 2   
     3     1    13 1   
     4     2     3 ar  
     5     2     7 ar  
     6     3     4 ar  
     7     3    11 ar  
     8     4     5 ar  
     9     4     8 ar  
    10     5     6 ar  
    11     5    15 1   
    12     6     7 ar  
    13     6    16 1   
    14     7    17 1   
    15     8     9 ar  
    16     8    18 1   
    17     9    10 ar  
    18     9    19 1   
    19    10    11 ar  
    20    10    20 1   
    21    11    21 1   
    22    13    14 1   
    23    13    22 1   
    24    14    23 1   
@<TRIPOS>SUBSTRUCTURE
     1 8GK         1 TEMP              0 ****  ****    0 ROOT
