@<TRIPOS>MOLECULE
molecule
   38    40     1     0     0
SMALL
bcc


@<TRIPOS>ATOM
      1 OP3          0.0000     0.0000     0.0000 o          1 8GM      -0.700500
      2 P            1.6110     0.0000     0.0000 p5         1 8GM       1.204900
      3 OP2          2.1470     0.0000     1.5180 o          1 8GM      -0.700500
      4 OP1          2.1030    -1.2090    -0.6980 o          1 8GM      -0.700500
      5 O5'          2.1480     1.3140    -0.7590 os         1 8GM      -0.575200
      6 C5'          3.5320     1.5530    -1.0180 c3         1 8GM       0.222400
      7 C4'          3.6920     2.8860    -1.7520 c3         1 8GM       0.121100
      8 O4'          3.3110     3.9690    -0.8870 os         1 8GM      -0.366600
      9 C3'          5.1700     3.1010    -2.1300 c3         1 8GM       0.091100
     10 O3'          5.3120     3.2190    -3.5480 oh         1 8GM      -0.590800
     11 C2'          5.5500     4.4320    -1.4360 c3         1 8GM       0.081100
     12 O2'          6.3630     5.2390    -2.2890 oh         1 8GM      -0.590800
     13 C1'          4.1640     5.0870    -1.2100 c3         1 8GM       0.323500
     14 N9           4.2160     6.0350    -0.0950 n          1 8GM      -0.332000
     15 C8           4.5390     5.7330     1.1770 c          1 8GM       0.797500
     16 O8           4.8360     4.6240     1.5820 o          1 8GM      -0.618500
     17 C4           3.9480     7.3860    -0.1750 cc         1 8GM       0.255200
     18 N3           3.5910     8.1960    -1.1790 nc         1 8GM      -0.611300
     19 C2           3.3930     9.4800    -0.9780 cd         1 8GM       0.237800
     20 N2           3.0270    10.2740    -2.0350 nz         1 8GM      -0.667600
     21 N1           3.5410    10.0430     0.2540 ns         1 8GM      -0.464400
     22 C6           3.9010     9.2800     1.3090 c          1 8GM       0.746700
     23 O6           4.0350     9.7710     2.4180 o          1 8GM      -0.665500
     24 C5           4.1140     7.9090     1.1020 cd         1 8GM      -0.225600
     25 N7           4.4840     6.8480     1.9310 ns         1 8GM      -0.405100
     26 H3           3.9280     0.7530    -1.6320 h1         1 8GM       0.035700
     27 H4           4.0730     1.5900    -0.0800 h1         1 8GM       0.035700
     28 H5           3.0800     2.8970    -2.6450 h1         1 8GM       0.076700
     29 H6           5.7790     2.2910    -1.7480 h1         1 8GM       0.057700
     30 H7           5.8930     2.5470    -3.8630 ho         1 8GM       0.399000
     31 H8           6.0420     4.2430    -0.4900 h1         1 8GM       0.079700
     32 H9           7.2520     5.2320    -1.9750 ho         1 8GM       0.395000
     33 H10          3.8230     5.5730    -2.1160 h2         1 8GM       0.090700
     34 H11          2.9650     9.7180    -2.8640 hn         1 8GM       0.428133
     35 H12          3.7120    10.9920    -2.1660 hn         1 8GM       0.428133
     36 H13          3.3840    11.0230     0.3770 hn         1 8GM       0.312500
     37 H14          4.6780     6.9060     2.9110 hn         1 8GM       0.367500
     38 H23          2.1360    10.6910    -1.8470 hn         1 8GM       0.428133
@<TRIPOS>BOND
     1    10     9 1
     2     4     2 1
     3     9     7 1
     4     9    11 1
     5     7     6 1
     6     7     8 1
     7     6     5 1
     8     5     2 1
     9     2     1 1
    10     2     3 1
    11    12    11 1
    12    11    13 1
    13     8    13 1
    14    13    14 1
    15    14    17 1
    16    14    15 1
    17    16    15 2
    18    18    17 1
    19    18    19 2
    20    17    24 2
    21    15    25 1
    22    20    19 1
    23    19    21 1
    24    25    24 1
    25    24    22 1
    26    21    22 1
    27    22    23 2
    28     6    26 1
    29     6    27 1
    30     7    28 1
    31     9    29 1
    32    10    30 1
    33    11    31 1
    34    12    32 1
    35    13    33 1
    36    20    34 1
    37    20    35 1
    38    21    36 1
    39    25    37 1
    40    38    20 1
@<TRIPOS>SUBSTRUCTURE
     1 8GM         1 TEMP              0 ****  ****    0 ROOT
