@<TRIPOS>MOLECULE
molecule
   63    67     1     0     0
SMALL
bcc


@<TRIPOS>ATOM
      1 C1           0.0000     0.0000     0.0000 c          1 8GN       0.657100
      2 C2           2.0490     0.1120     1.2080 ca         1 8GN       0.100600
      3 C3           1.4180     0.6210     2.3330 ca         1 8GN      -0.185000
      4 N6           2.9610    -0.9150     9.4710 nc         1 8GN      -0.560100
      5 C7           3.3810    -0.2940     1.2830 ca         1 8GN       0.026600
      6 C8           5.1950     0.0140    -0.2180 c3         1 8GN       0.110800
      7 C9           6.2580    -0.9430    -0.7870 c3         1 8GN      -0.133400
      8 C10          5.6280    -2.3520    -0.6900 c3         1 8GN       0.174500
      9 C11          4.5500    -2.1730     0.4090 c3         1 8GN       0.132800
     10 C12          6.0200    -4.6650    -0.0910 c3         1 8GN       0.149600
     11 C13          7.7370    -3.4050    -1.2430 c3         1 8GN       0.149600
     12 C14          1.8010     0.7530     5.9200 cc         1 8GN       0.690200
     13 C15          1.2400     1.3370     7.0640 cc         1 8GN      -0.333300
     14 C16          1.5710     0.8440     8.2950 cd         1 8GN       0.278300
     15 C19          3.7670    -1.8500     9.0450 cd         1 8GN       0.455500
     16 C20          4.5810    -2.6520     6.7810 cg         1 8GN       0.264500
     17 C21          0.0100     2.4420     9.3330 cx         1 8GN      -0.147500
     18 C22         -0.1450     3.4000    10.5160 cx         1 8GN      -0.160400
     19 N7           5.1940    -3.3400     6.1150 n1         1 8GN      -0.407800
     20 C18          3.8160    -1.8000     7.6390 cc         1 8GN      -0.276300
     21 N4           2.4430    -0.2100     8.3790 na         1 8GN       0.030200
     22 N8           1.0350     1.4000     9.4370 nu         1 8GN      -0.894600
     23 C23         -1.2060     2.3300    10.2540 cx         1 8GN      -0.160400
     24 C17          2.9670    -0.7500     7.2380 cd         1 8GN       0.499500
     25 N5           2.6410    -0.2650     6.0390 nd         1 8GN      -0.813000
     26 C4           2.1130     0.7260     3.5290 ca         1 8GN       0.060600
     27 C5           3.4390     0.3200     3.6010 ca         1 8GN      -0.141000
     28 C6           4.0700    -0.1870     2.4820 ca         1 8GN      -0.118000
     29 N            1.3470     0.0000     0.0000 ns         1 8GN      -0.458100
     30 O           -0.6060     0.0000     1.0510 o          1 8GN      -0.600100
     31 C           -0.7540     0.0060    -1.3050 c3         1 8GN      -0.170100
     32 N1           4.0210    -0.8100     0.1480 nh         1 8GN      -0.566000
     33 N2           6.6310    -3.3420    -0.2780 n3         1 8GN      -0.732600
     34 H1           0.3830     0.9360     2.2760 ha         1 8GN       0.211000
     35 H2           5.6720     0.8370     0.2990 h1         1 8GN       0.063200
     36 H3           4.5590     0.3820    -1.0150 h1         1 8GN       0.063200
     37 H4           6.9170    -1.2810     0.0040 hc         1 8GN       0.074200
     38 H5           6.8240    -0.4490    -1.5680 hc         1 8GN       0.074200
     39 H6           5.1690    -2.6300    -1.6310 h1         1 8GN       0.032700
     40 H7           3.6920    -2.7980     0.1950 h1         1 8GN       0.065700
     41 H8           4.9640    -2.4140     1.3810 h1         1 8GN       0.065700
     42 H9           5.0660    -4.5540     0.4110 h1         1 8GN       0.035533
     43 H10          5.8670    -5.1320    -1.0560 h1         1 8GN       0.035533
     44 H11          6.6740    -5.2840     0.5110 h1         1 8GN       0.035533
     45 H12          8.5800    -3.9160    -0.7930 h1         1 8GN       0.035533
     46 H13          7.4160    -3.9460    -2.1250 h1         1 8GN       0.035533
     47 H14          8.0310    -2.4010    -1.5220 h1         1 8GN       0.035533
     48 H15          0.5530     2.1690     6.9670 ha         1 8GN       0.197000
     49 H16          4.3050    -2.5580     9.6650 h4         1 8GN       0.068800
     50 H17          0.6300     1.5560     9.4020 h1         1 8GN       0.271700
     51 H18         -1.0580     3.9820    10.5290 hc         1 8GN       0.112950
     52 H19          0.3080     3.0740    11.4440 hc         1 8GN       0.112950
     53 H20          0.0660     1.6500     9.4640 hn         1 8GN       0.586800
     54 H21         -2.1410     2.6900     9.8400 hc         1 8GN       0.112950
     55 H22         -1.2000     1.4890    10.9370 hc         1 8GN       0.112950
     56 H23          1.6400     0.6770     3.8540 hn         1 8GN       0.558800
     57 H24          3.9810     0.4020     4.5350 ha         1 8GN       0.181000
     58 H25          5.1050    -0.5020     2.5410 ha         1 8GN       0.155000
     59 H26          1.8480    -0.0040    -0.8670 hn         1 8GN       0.344500
     60 H27         -0.5010    -0.8810    -1.8720 hc         1 8GN       0.066033
     61 H28         -1.8190     0.0170    -1.1060 hc         1 8GN       0.066033
     62 H29         -0.4830     0.8880    -1.8740 hc         1 8GN       0.066033
     63 N3           1.4760     1.2390     4.6660 nu         1 8GN      -0.798300
@<TRIPOS>BOND
     1    10    33 1
     2    11    33 1
     3    33     8 1
     4     7     8 1
     5     7     6 1
     6     8     9 1
     7     6    32 1
     8    31     1 1
     9     9    32 1
    10    32     5 1
    11     1    29 1
    12     1    30 2
    13    29     2 1
    14     5     2 ar
    15     5    28 ar
    16     2     3 ar
    17    28    27 ar
    18     3    26 ar
    19    27    26 ar
    20    26    63 1
    21    63    12 1
    22    23    17 1
    23    23    18 1
    24    17    18 1
    25    17    22 1
    26    13    12 1
    27    13    14 2
    28    12    25 2
    29    22    14 1
    30    14    21 1
    31    25    24 1
    32    21    24 1
    33    21     4 1
    34    24    20 2
    35     4    15 2
    36    20    16 1
    37    20    15 1
    38    16    19 3
    39     3    34 1
    40     6    35 1
    41     6    36 1
    42     7    37 1
    43     7    38 1
    44     8    39 1
    45     9    40 1
    46     9    41 1
    47    10    42 1
    48    10    43 1
    49    10    44 1
    50    11    45 1
    51    11    46 1
    52    11    47 1
    53    13    48 1
    54    15    49 1
    55    17    50 1
    56    18    51 1
    57    18    52 1
    58    22    53 1
    59    23    54 1
    60    23    55 1
    61    63    56 1
    62    27    57 1
    63    28    58 1
    64    29    59 1
    65    31    60 1
    66    31    61 1
    67    31    62 1
@<TRIPOS>SUBSTRUCTURE
     1 8GN         1 TEMP              0 ****  ****    0 ROOT
