@<TRIPOS>MOLECULE
8GN
   63    70     1     0     0
SMALL
bcc


@<TRIPOS>ATOM
      1 C1           0.0000     0.0000     0.0000 c2         1 8GN       0.203000
      2 C2           2.0490     0.1120     1.2080 c2         1 8GN      -0.024000
      3 C3           1.4180     0.6210     2.3330 c2         1 8GN      -0.200000
      4 N6           2.9610    -0.9150     9.4710 n2         1 8GN      -0.257000
      5 C7           3.3810    -0.2940     1.2830 c2         1 8GN      -0.119000
      6 C8           5.1950     0.0140    -0.2180 c3         1 8GN      -0.122000
      7 C9           6.2580    -0.9430    -0.7870 c3         1 8GN      -0.167000
      8 C10          5.6280    -2.3520    -0.6900 c3         1 8GN      -0.058000
      9 C11          4.5500    -2.1730     0.4090 c3         1 8GN      -0.103000
     10 C12          6.0200    -4.6650    -0.0910 c3         1 8GN      -0.100000
     11 C13          7.7370    -3.4050    -1.2430 c3         1 8GN      -0.100000
     12 C14          1.8010     0.7530     5.9200 c2         1 8GN       0.088000
     13 C15          1.2400     1.3370     7.0640 c2         1 8GN      -0.191000
     14 C16          1.5710     0.8440     8.2950 c2         1 8GN      -0.087000
     15 C19          3.7670    -1.8500     9.0450 c2         1 8GN       0.022000
     16 C20          4.5810    -2.6520     6.7810 c1         1 8GN      -0.027000
     17 C21          0.0100     2.4420     9.3330 DU         1 8GN      -0.380000
     18 C22         -0.1450     3.4000    10.5160 cx         1 8GN      -0.160000
     19 N7           5.1940    -3.3400     6.1150 n1         1 8GN      -0.101000
     20 C18          3.8160    -1.8000     7.6390 c2         1 8GN      -0.190000
     21 N4           2.4430    -0.2100     8.3790 na         1 8GN       0.420000
     22 N8           1.0350     1.4000     9.4370 nu         1 8GN       0.061000
     23 C23         -1.2060     2.3300    10.2540 cx         1 8GN      -0.160000
     24 C17          2.9670    -0.7500     7.2380 c2         1 8GN      -0.081000
     25 N5           2.6410    -0.2650     6.0390 n2         1 8GN      -0.149000
     26 C4           2.1130     0.7260     3.5290 c3         1 8GN       0.049000
     27 C5           3.4390     0.3200     3.6010 c2         1 8GN      -0.154000
     28 C6           4.0700    -0.1870     2.4820 c2         1 8GN      -0.069000
     29 N            1.3470     0.0000     0.0000 ns         1 8GN       0.134000
     30 O           -0.6060     0.0000     1.0510 o          1 8GN      -0.398000
     31 C           -0.7540     0.0060    -1.3050 c3         1 8GN      -0.137000
     32 N1           4.0210    -0.8100     0.1480 n3         1 8GN      -0.010000
     33 N2           6.6310    -3.3420    -0.2780 n3         1 8GN      -0.067000
     34 H1           0.3830     0.9360     2.2760 ha         1 8GN       0.195000
     35 H2           5.6720     0.8370     0.2990 h1         1 8GN       0.073000
     36 H3           4.5590     0.3820    -1.0150 h1         1 8GN       0.073000
     37 H4           6.9170    -1.2810     0.0040 hc         1 8GN       0.086000
     38 H5           6.8240    -0.4490    -1.5680 hc         1 8GN       0.086000
     39 H6           5.1690    -2.6300    -1.6310 h1         1 8GN       0.052000
     40 H7           3.6920    -2.7980     0.1950 h1         1 8GN       0.075500
     41 H8           4.9640    -2.4140     1.3810 h1         1 8GN       0.075500
     42 H9           5.0660    -4.5540     0.4110 h1         1 8GN       0.044333
     43 H10          5.8670    -5.1320    -1.0560 h1         1 8GN       0.044333
     44 H11          6.6740    -5.2840     0.5110 h1         1 8GN       0.044333
     45 H12          8.5800    -3.9160    -0.7930 h1         1 8GN       0.044333
     46 H13          7.4160    -3.9460    -2.1250 h1         1 8GN       0.044333
     47 H14          8.0310    -2.4010    -1.5220 h1         1 8GN       0.044333
     48 H15          0.5530     2.1690     6.9670 ha         1 8GN       0.176000
     49 H16          4.3050    -2.5580     9.6650 h4         1 8GN       0.148000
     50 H17          0.6300     1.5560     9.4020 DU         1 8GN      -0.035000
     51 H18         -1.0580     3.9820    10.5290 hc         1 8GN       0.116500
     52 H19          0.3080     3.0740    11.4440 hc         1 8GN       0.116500
     53 H20          0.0660     1.6500     9.4640 DU         1 8GN       0.310000
     54 H21         -2.1410     2.6900     9.8400 hc         1 8GN       0.116500
     55 H22         -1.2000     1.4890    10.9370 hc         1 8GN       0.116500
     56 H23          1.6400     0.6770     3.8540 DU         1 8GN       0.270000
     57 H24          3.9810     0.4020     4.5350 ha         1 8GN       0.153000
     58 H25          5.1050    -0.5020     2.5410 ha         1 8GN       0.125000
     59 H26          1.8480    -0.0040    -0.8670 hn         1 8GN       0.100000
     60 H27         -0.5010    -0.8810    -1.8720 hc         1 8GN       0.066000
     61 H28         -1.8190     0.0170    -1.1060 hc         1 8GN       0.066000
     62 H29         -0.4830     0.8880    -1.8740 hc         1 8GN       0.066000
     63 N3           1.4760     1.2390     4.6660 nu         1 8GN      -0.260000
@<TRIPOS>BOND
     1     1    29 1   
     2     1    30 1   
     3     1    31 1   
     4     2     3 1   
     5     2     5 1   
     6     2    29 1   
     7     3    26 1   
     8     3    34 1   
     9     4    15 1   
    10     4    21 1   
    11     5    28 1   
    12     5    32 1   
    13     6     7 1   
    14     6    32 1   
    15     6    35 1   
    16     6    36 1   
    17     7     8 1   
    18     7    37 1   
    19     7    38 1   
    20     8     9 1   
    21     8    33 1   
    22     8    39 1   
    23     9    32 1   
    24     9    40 1   
    25     9    41 1   
    26    10    33 1   
    27    10    42 1   
    28    10    43 1   
    29    10    44 1   
    30    11    33 1   
    31    11    45 1   
    32    11    46 1   
    33    11    47 1   
    34    12    13 1   
    35    12    25 1   
    36    12    63 1   
    37    13    14 1   
    38    13    48 1   
    39    14    21 1   
    40    14    22 1   
    41    15    20 1   
    42    15    49 1   
    43    16    19 1   
    44    16    20 1   
    45    17    18 1   
    46    17    22 1   
    47    17    23 1   
    48    17    50 1   
    49    17    53 1   
    50    18    23 1   
    51    18    51 1   
    52    18    52 1   
    53    20    24 1   
    54    21    24 1   
    55    22    53 1   
    56    23    54 1   
    57    23    55 1   
    58    24    25 1   
    59    26    27 1   
    60    26    56 1   
    61    26    63 1   
    62    27    28 1   
    63    27    57 1   
    64    28    58 1   
    65    29    59 1   
    66    31    60 1   
    67    31    61 1   
    68    31    62 1   
    69    50    53 1   
    70    56    63 1   
@<TRIPOS>SUBSTRUCTURE
     1 8GN         1 TEMP              0 ****  ****    0 ROOT
