@<TRIPOS>MOLECULE
molecule
   38    39     1     0     0
SMALL
bcc


@<TRIPOS>ATOM
      1 C1           0.0000     0.0000     0.0000 c3         1 8GP       0.302500
      2 C2           1.5300     0.0000     0.0000 c3         1 8GP       0.097100
      3 O2           2.0090    -1.1660    -0.6720 oh         1 8GP      -0.592800
      4 C3           2.0290     0.0000     1.4490 c3         1 8GP       0.114100
      5 O3           3.4510     0.1500     1.4670 oh         1 8GP      -0.606800
      6 C4           1.3770     1.1710     2.1920 c3         1 8GP       0.104100
      7 O4           1.7120     1.1040     3.5800 oh         1 8GP      -0.600800
      8 C5          -0.1420     1.0810     2.0280 c3         1 8GP       0.139100
      9 O5          -0.4840     1.1750     0.6460 os         1 8GP      -0.394600
     10 C6          -0.8060     2.2260     2.7950 c3         1 8GP       0.151400
     11 O6          -2.2270     2.0750     2.7410 oh         1 8GP      -0.596800
     12 N1          -0.4850    -0.0320    -1.3820 ns         1 8GP      -0.540900
     13 C7          -1.6070    -0.7140    -1.6870 c          1 8GP       0.608100
     14 O7          -2.2150    -1.3020    -0.8170 o          1 8GP      -0.594100
     15 C8          -2.1030    -0.7470    -3.0960 c          1 8GP       0.601100
     16 O8          -1.4940    -0.1590    -3.9670 o          1 8GP      -0.606100
     17 N2          -3.2240    -1.4290    -3.4010 ns         1 8GP      -0.522900
     18 C9          -3.7090    -1.4610    -4.7830 cx         1 8GP       0.051700
     19 C10         -4.5770    -2.6490    -5.1990 cx         1 8GP      -0.152900
     20 C11         -5.2110    -1.2700    -5.0090 cx         1 8GP      -0.152900
     21 H1          -0.3580    -0.8730     0.5320 h2         1 8GP       0.093700
     22 H2           1.8900     0.8880    -0.5050 h1         1 8GP       0.057700
     23 HO2          2.6790    -0.9210    -1.2890 ho         1 8GP       0.415000
     24 H3           1.7520    -0.9320     1.9270 h1         1 8GP       0.066700
     25 HO3          3.8410    -0.6000     1.8840 ho         1 8GP       0.416000
     26 H4           1.7300     2.1050     1.7740 h1         1 8GP       0.057700
     27 HO4          2.3770     1.7430     3.7740 ho         1 8GP       0.414000
     28 H5          -0.4890     0.1320     2.4180 h1         1 8GP       0.071700
     29 H61         -0.4800     2.2060     3.8280 h1         1 8GP       0.036200
     30 H62         -0.5260     3.1720     2.3470 h1         1 8GP       0.036200
     31 HO6         -2.6330     2.7210     3.2960 ho         1 8GP       0.403000
     32 HN1         -0.0060     0.4840    -2.0930 hn         1 8GP       0.339500
     33 HN2         -3.7030    -1.9460    -2.6910 hn         1 8GP       0.340500
     34 H9          -3.0780    -1.0630    -5.5680 h1         1 8GP       0.123700
     35 H101        -4.7870    -3.3710    -4.4190 hc         1 8GP       0.080200
     36 H102        -4.4640    -2.9730    -6.2270 hc         1 8GP       0.080200
     37 H111        -5.8070    -1.1490    -4.1120 hc         1 8GP       0.080200
     38 H112        -5.4840    -0.7510    -5.9200 hc         1 8GP       0.080200
@<TRIPOS>BOND
     1     1     2 1   
     2     1     9 1   
     3     1    12 1   
     4     1    21 1   
     5     2     3 1   
     6     2     4 1   
     7     2    22 1   
     8     3    23 1   
     9     4     5 1   
    10     4     6 1   
    11     4    24 1   
    12     5    25 1   
    13     6     7 1   
    14     6     8 1   
    15     6    26 1   
    16     7    27 1   
    17     8     9 1   
    18     8    10 1   
    19     8    28 1   
    20    10    11 1   
    21    10    29 1   
    22    10    30 1   
    23    11    31 1   
    24    12    13 1   
    25    12    32 1   
    26    13    14 2   
    27    13    15 1   
    28    15    16 2   
    29    15    17 1   
    30    17    18 1   
    31    17    33 1   
    32    18    19 1   
    33    18    20 1   
    34    18    34 1   
    35    19    20 1   
    36    19    35 1   
    37    19    36 1   
    38    20    37 1   
    39    20    38 1   
@<TRIPOS>SUBSTRUCTURE
     1 8GP         1 TEMP              0 ****  ****    0 ROOT
