@<TRIPOS>MOLECULE
8GR
   52    56     1     0     0
SMALL
bcc


@<TRIPOS>ATOM
      1 C15          0.0000     0.0000     0.0000 c3         1 8GR       0.147300
      2 C17          5.3370     2.4900     1.7360 cc         1 8GR      -0.110100
      3 C20          2.9760     3.4690     3.2500 cc         1 8GR      -0.237100
      4 C22          2.9080     4.6140     5.1840 ca         1 8GR      -0.243200
      5 C24          5.2490     4.8600     5.7590 ca         1 8GR      -0.052000
      6 C26          3.5490     5.7690     7.1860 ca         1 8GR      -0.089000
      7 C28          6.3990     1.9830     0.9410 c          1 8GR       0.639900
      8 C01          3.6770    -0.8870    -4.0940 c3         1 8GR       0.242700
      9 C03          3.9730     0.3020    -2.0580 ca         1 8GR       0.232100
     10 C04          5.3440     0.1440    -2.2410 ca         1 8GR      -0.266000
     11 C05          6.2230     0.6520    -1.3270 ca         1 8GR       0.066000
     12 C06          5.7440     1.3310    -0.2060 ca         1 8GR      -0.327600
     13 C07          4.3630     1.4960    -0.0120 ca         1 8GR       0.190100
     14 C08          3.4830     0.9740    -0.9500 ca         1 8GR      -0.168300
     15 C09          1.9970     1.1390    -0.7630 c3         1 8GR       0.229100
     16 N10          1.4700     0.0000     0.0000 n3         1 8GR      -0.537600
     17 C11          1.9930     0.0000     1.3730 c3         1 8GR       0.147300
     18 C12          1.4850    -1.2430     2.1100 c3         1 8GR       0.146300
     19 N13          0.0150    -1.2420     2.1100 n7         1 8GR      -0.589200
     20 C14         -0.5070    -1.2410     0.7360 c3         1 8GR       0.146300
     21 O16          4.1640     2.1740     1.1380 os         1 8GR      -0.178200
     22 C19          4.2910     3.6410     3.6250 cd         1 8GR      -0.158200
     23 N21          2.1640     4.0460     4.1690 na         1 8GR       0.387600
     24 C23          4.2640     4.3910     4.8950 ca         1 8GR      -0.068800
     25 C25          4.8870     5.5460     6.8990 ca         1 8GR      -0.118000
     26 C27          2.5630     5.3110     6.3370 ca         1 8GR      -0.094000
     27 O29          7.5960     2.0690     1.1610 o          1 8GR      -0.558100
     28 H1          -0.3600    -0.0150    -1.0220 h1         1 8GR       0.015700
     29 H2          -0.3600     0.8890     0.5030 h1         1 8GR       0.015700
     30 H4           6.2950     4.6870     5.5370 ha         1 8GR       0.104000
     31 H5           3.2750     6.3090     8.0840 ha         1 8GR       0.102000
     32 H6           4.3100    -0.2050    -4.6470 h1         1 8GR       0.000367
     33 H7           4.2680    -1.7250    -3.7430 h1         1 8GR       0.000367
     34 H8           2.8850    -1.2490    -4.7390 h1         1 8GR       0.000367
     35 H9           5.7150    -0.3830    -3.1120 ha         1 8GR       0.128000
     36 H10          7.2900     0.5280    -1.4720 ha         1 8GR       0.109000
     37 H11          1.5140     1.1790    -1.7320 h1         1 8GR       0.016200
     38 H12          1.8010     2.0570    -0.2240 h1         1 8GR       0.016200
     39 H14          3.0760    -0.0150     1.3460 h1         1 8GR       0.015700
     40 H15          1.6510     0.8890     1.8890 h1         1 8GR       0.015700
     41 H16          1.8450    -2.1320     1.6070 h1         1 8GR       0.011200
     42 H17          1.8450    -1.2280     3.1320 h1         1 8GR       0.011200
     43 H18         -0.3190    -2.0510     2.5940 hn         1 8GR       0.252800
     44 H20         -1.5900    -1.2270     0.7630 h1         1 8GR       0.011200
     45 H21         -0.1650    -2.1310     0.2210 h1         1 8GR       0.011200
     46 H23          1.1640     4.0560     4.1210 hn         1 8GR       0.114700
     47 H24          5.6520     5.9110     7.5740 ha         1 8GR       0.104000
     48 H25          1.5200     5.4900     6.5710 ha         1 8GR       0.100000
     49 C18          5.4760     3.1750     2.9060 cf         1 8GR       0.068000
     50 O02          3.1090    -0.2060    -2.9740 os         1 8GR      -0.296900
     51 H3           2.6430     2.9550     2.3560 h4         1 8GR       0.163000
     52 H22          6.4630     3.3740     3.3040 ha         1 8GR       0.130000
@<TRIPOS>BOND
     1     1    16 1   
     2     1    20 1   
     3     1    28 1   
     4     1    29 1   
     5     2     7 1   
     6     2    21 1   
     7     2    49 2   
     8     3    22 2   
     9     3    23 1   
    10     3    51 1   
    11     4    23 1   
    12     4    24 ar  
    13     4    26 ar  
    14     5    24 ar  
    15     5    25 ar  
    16     5    30 1   
    17     6    25 ar  
    18     6    26 ar  
    19     6    31 1   
    20     7    12 1   
    21     7    27 2   
    22     8    32 1   
    23     8    33 1   
    24     8    34 1   
    25     8    50 1   
    26     9    10 ar  
    27     9    14 ar  
    28     9    50 1   
    29    10    11 ar  
    30    10    35 1   
    31    11    12 ar  
    32    11    36 1   
    33    12    13 ar  
    34    13    14 ar  
    35    13    21 1   
    36    14    15 1   
    37    15    16 1   
    38    15    37 1   
    39    15    38 1   
    40    16    17 1   
    41    17    18 1   
    42    17    39 1   
    43    17    40 1   
    44    18    19 1   
    45    18    41 1   
    46    18    42 1   
    47    19    20 1   
    48    19    43 1   
    49    20    44 1   
    50    20    45 1   
    51    22    24 1   
    52    22    49 1   
    53    23    46 1   
    54    25    47 1   
    55    26    48 1   
    56    49    52 1   
@<TRIPOS>SUBSTRUCTURE
     1 8GR         1 TEMP              0 ****  ****    0 ROOT
