@<TRIPOS>MOLECULE
molecule
   52    56     1     0     0
SMALL
bcc


@<TRIPOS>ATOM
      1 C15          0.0000     0.0000     0.0000 c3         1 8GR       0.164300
      2 C17          5.3370     2.4900     1.7360 cc         1 8GR      -0.095100
      3 C20          2.9760     3.4690     3.2500 cc         1 8GR      -0.044100
      4 C22          2.9080     4.6140     5.1840 ca         1 8GR      -0.050200
      5 C24          5.2490     4.8600     5.7590 ca         1 8GR      -0.086000
      6 C26          3.5490     5.7690     7.1860 ca         1 8GR      -0.112000
      7 C28          6.3990     1.9830     0.9410 c          1 8GR       0.577900
      8 C01          3.6770    -0.8870    -4.0940 c3         1 8GR       0.127700
      9 C03          3.9730     0.3020    -2.0580 ca         1 8GR       0.219100
     10 C04          5.3440     0.1440    -2.2410 ca         1 8GR      -0.267000
     11 C05          6.2230     0.6520    -1.3270 ca         1 8GR       0.018000
     12 C06          5.7440     1.3310    -0.2060 ca         1 8GR      -0.306600
     13 C07          4.3630     1.4960    -0.0120 ca         1 8GR       0.182100
     14 C08          3.4830     0.9740    -0.9500 ca         1 8GR      -0.142300
     15 C09          1.9970     1.1390    -0.7630 c3         1 8GR       0.225100
     16 N10          1.4700     0.0000     0.0000 n3         1 8GR      -0.725600
     17 C11          1.9930     0.0000     1.3730 c3         1 8GR       0.164300
     18 C12          1.4850    -1.2430     2.1100 c3         1 8GR       0.157300
     19 N13          0.0150    -1.2420     2.1100 n7         1 8GR      -0.825200
     20 C14         -0.5070    -1.2410     0.7360 c3         1 8GR       0.157300
     21 O16          4.1640     2.1740     1.1380 os         1 8GR      -0.215200
     22 C19          4.2910     3.6410     3.6250 cd         1 8GR      -0.167200
     23 N21          2.1640     4.0460     4.1690 na         1 8GR      -0.165400
     24 C23          4.2640     4.3910     4.8950 ca         1 8GR      -0.076800
     25 C25          4.8870     5.5460     6.8990 ca         1 8GR      -0.146000
     26 C27          2.5630     5.3110     6.3370 ca         1 8GR      -0.136000
     27 O29          7.5960     2.0690     1.1610 o          1 8GR      -0.523100
     28 H1          -0.3600    -0.0150    -1.0220 h1         1 8GR       0.040200
     29 H2          -0.3600     0.8890     0.5030 h1         1 8GR       0.040200
     30 H4           6.2950     4.6870     5.5370 ha         1 8GR       0.133000
     31 H5           3.2750     6.3090     8.0840 ha         1 8GR       0.132000
     32 H6           2.8850    -1.2480    -4.7390 h1         1 8GR       0.045367
     33 H7           4.2670    -1.7250    -3.7430 h1         1 8GR       0.045367
     34 H8           4.3110    -0.2050    -4.6470 h1         1 8GR       0.045367
     35 H9           5.7150    -0.3830    -3.1120 ha         1 8GR       0.142000
     36 H10          7.2900     0.5280    -1.4720 ha         1 8GR       0.146000
     37 H11          1.5140     1.1790    -1.7320 h1         1 8GR       0.045200
     38 H12          1.8010     2.0570    -0.2240 h1         1 8GR       0.045200
     39 H14          3.0760    -0.0150     1.3460 h1         1 8GR       0.040200
     40 H15          1.6510     0.8890     1.8890 h1         1 8GR       0.040200
     41 H16          1.8450    -2.1320     1.6070 h1         1 8GR       0.038950
     42 H17          1.8450    -1.2280     3.1320 h1         1 8GR       0.038950
     43 H18         -0.3190    -2.0510     2.5940 hn         1 8GR       0.352800
     44 H20         -1.5900    -1.2270     0.7630 h1         1 8GR       0.038950
     45 H21         -0.1650    -2.1310     0.2210 h1         1 8GR       0.038950
     46 H23          1.1640     4.0560     4.1210 hn         1 8GR       0.301700
     47 H24          5.6520     5.9110     7.5740 ha         1 8GR       0.132000
     48 H25          1.5200     5.4900     6.5710 ha         1 8GR       0.127000
     49 C18          5.4760     3.1750     2.9060 cf         1 8GR       0.028000
     50 O02          3.1090    -0.2060    -2.9740 os         1 8GR      -0.313900
     51 H3           2.6430     2.9550     2.3560 h4         1 8GR       0.193000
     52 H22          6.4630     3.3740     3.3040 ha         1 8GR       0.172000
@<TRIPOS>BOND
     1    20     1 1   
     2    20    19 1   
     3     1    16 1   
     4    19    18 1   
     5     8    50 1   
     6    50     9 1   
     7    16    15 1   
     8    16    17 1   
     9    18    17 1   
    10    15    14 1   
    11     9    14 ar  
    12     9    10 ar  
    13    14    13 ar  
    14    10    11 ar  
    15    13    12 ar  
    16    13    21 1   
    17    25     6 ar  
    18    25     5 ar  
    19    11    12 ar  
    20     6    26 ar  
    21    12     7 1   
    22     5    24 ar  
    23    21     2 1   
    24    26     4 ar  
    25     2     7 1   
    26     2    49 2   
    27     7    27 2   
    28    24     4 ar  
    29    24    22 1   
    30     4    23 1   
    31    49    22 1   
    32    22     3 2   
    33    23     3 1   
    34     1    28 1   
    35     1    29 1   
    36     3    51 1   
    37     5    30 1   
    38     6    31 1   
    39     8    32 1   
    40     8    33 1   
    41     8    34 1   
    42    10    35 1   
    43    11    36 1   
    44    15    37 1   
    45    15    38 1   
    46    17    39 1   
    47    17    40 1   
    48    18    41 1   
    49    18    42 1   
    50    19    43 1   
    51    20    44 1   
    52    20    45 1   
    53    49    52 1   
    54    23    46 1   
    55    25    47 1   
    56    26    48 1   
@<TRIPOS>SUBSTRUCTURE
     1 8GR         1 TEMP              0 ****  ****    0 ROOT
