@<TRIPOS>MOLECULE
molecule
   41    44     1     0     0
SMALL
bcc


@<TRIPOS>ATOM
      1 C5           0.0000     0.0000     0.0000 cc         1 8GS       0.367400
      2 C8           1.7300     0.0000     1.3160 cd         1 8GS       0.289500
      3 C10          3.3340     0.0000     3.2130 ca         1 8GS      -0.218300
      4 C13          5.3880     0.0010     1.4140 ca         1 8GS       0.639200
      5 C17          7.4340    -0.0990    -2.4510 ca         1 8GS      -0.094300
      6 C20         10.0900    -0.2990    -3.2010 ca         1 8GS      -0.139000
      7 C21          9.7630    -0.2980    -1.8610 ca         1 8GS      -0.057000
      8 C22          8.4260    -0.1980    -1.4720 ca         1 8GS      -0.153600
      9 C1           1.7650    -1.2390    -1.9330 c3         1 8GS      -0.111600
     10 C2           2.2360     0.0010    -1.1700 c3         1 8GS       0.036000
     11 C3           1.9680     1.2500    -2.0110 c3         1 8GS      -0.111600
     12 N4           1.3540     0.0000     0.0000 na         1 8GS      -0.295700
     13 N6          -0.3940     0.0050     1.2460 nc         1 8GS      -0.357000
     14 N7           0.6250     0.0090     2.0300 nc         1 8GS      -0.339000
     15 C9           3.1140     0.0010     1.8360 ca         1 8GS       0.443300
     16 C11          4.6360     0.0000     3.6890 ca         1 8GS      -0.075000
     17 C12          5.6760     0.0010     2.7750 ca         1 8GS      -0.199300
     18 N14          4.1370     0.0000     0.9880 nb         1 8GS      -0.732000
     19 N15          6.4430    -0.0570    -0.2870 n          1 8GS      -0.541300
     20 C16          6.1200     0.0010    -1.7170 c3         1 8GS       0.155300
     21 C18          7.7700    -0.1010    -3.7850 ca         1 8GS      -0.118000
     22 C19          9.1000    -0.2010    -4.1630 ca         1 8GS      -0.104000
     23 C23          7.7750    -0.1700    -0.1490 c          1 8GS       0.694100
     24 O24          8.3600    -0.2400     0.9140 o          1 8GS      -0.651500
     25 H1          -0.6400    -0.0020    -0.8740 h5         1 8GS       0.075100
     26 H2           2.4980    -0.0000     3.9020 ha         1 8GS       0.179000
     27 H3          11.1270    -0.3780    -3.5030 ha         1 8GS       0.136000
     28 H4          10.5420    -0.3750    -1.1120 ha         1 8GS       0.148000
     29 H5           0.7760    -1.0590    -2.3390 hc         1 8GS       0.048033
     30 H6           2.4540    -1.4490    -2.7420 hc         1 8GS       0.048033
     31 H7           1.7300    -2.0860    -1.2590 hc         1 8GS       0.048033
     32 H8           3.2980    -0.0800    -0.9710 h1         1 8GS       0.126700
     33 H9           2.0790     2.1320    -1.3930 hc         1 8GS       0.048033
     34 H10          2.6760     1.2920    -2.8310 hc         1 8GS       0.048033
     35 H11          0.9600     1.2100    -2.4060 hc         1 8GS       0.048033
     36 H12          4.8350     0.0000     4.7530 ha         1 8GS       0.165000
     37 H13          6.7040     0.0010     3.1170 ha         1 8GS       0.181000
     38 H14          5.4810    -0.8310    -1.9860 h1         1 8GS       0.055700
     39 H15          5.6350     0.9410    -1.9500 h1         1 8GS       0.055700
     40 H16          6.9960    -0.0240    -4.5390 ha         1 8GS       0.130000
     41 H17          9.3640    -0.2030    -5.2130 ha         1 8GS       0.134000
@<TRIPOS>BOND
     1    13    14 1   
     2    13     1 2   
     3    14     2 2   
     4     1    12 1   
     5     2    12 1   
     6     2    15 1   
     7    12    10 1   
     8    11    10 1   
     9     3    15 ar  
    10     3    16 ar  
    11    15    18 ar  
    12    10     9 1   
    13    16    17 ar  
    14    18     4 ar  
    15     4    17 ar  
    16     4    19 1   
    17    20    19 1   
    18    20     5 1   
    19    19    23 1   
    20     5    21 ar  
    21     5     8 ar  
    22    23    24 2   
    23    23     8 1   
    24    21    22 ar  
    25     8     7 ar  
    26    22     6 ar  
    27     7     6 ar  
    28     1    25 1   
    29     3    26 1   
    30     6    27 1   
    31     7    28 1   
    32     9    29 1   
    33     9    30 1   
    34     9    31 1   
    35    10    32 1   
    36    11    33 1   
    37    11    34 1   
    38    11    35 1   
    39    16    36 1   
    40    17    37 1   
    41    20    38 1   
    42    20    39 1   
    43    21    40 1   
    44    22    41 1   
@<TRIPOS>SUBSTRUCTURE
     1 8GS         1 TEMP              0 ****  ****    0 ROOT
