@<TRIPOS>MOLECULE
molecule
   46    48     1     0     0
SMALL
bcc


@<TRIPOS>ATOM
      1 PG           0.0000     0.0000     0.0000 p5         1 8GT       1.148900
      2 O1G          1.6090     0.0000     0.0000 o          1 8GT      -0.592833
      3 O2G         -0.5370     0.0000     1.5180 o          1 8GT      -0.592833
      4 O3G         -0.4940    -1.2070    -0.6980 o          1 8GT      -0.592833
      5 O3B         -0.5370     1.3150    -0.7590 os         1 8GT      -0.610800
      6 PB          -2.0950     1.0670    -1.0760 p5         1 8GT       1.300800
      7 O1B         -2.2360     0.0320    -2.3010 o          1 8GT      -0.516500
      8 O2B         -2.7590     0.5050     0.1220 o          1 8GT      -0.516500
      9 O3A         -2.7920     2.4640    -1.4700 os         1 8GT      -0.616800
     10 PA          -4.3760     2.2700    -1.2540 p5         1 8GT       1.259800
     11 O1A         -4.9760     1.3780    -2.4510 o          1 8GT      -0.723000
     12 O2A         -4.6180     1.5900     0.0380 o          1 8GT      -0.723000
     13 O5'         -5.0950     3.7110    -1.2450 os         1 8GT      -0.525200
     14 C5'         -6.4720     3.4820    -0.9330 c3         1 8GT       0.159400
     15 C4'         -7.2170     4.8190    -0.9080 c3         1 8GT       0.134100
     16 O4'         -7.2570     5.3960    -2.2320 os         1 8GT      -0.365600
     17 C3'         -8.6990     4.6040    -0.5270 c3         1 8GT       0.090100
     18 O3'         -8.9030     4.8740     0.8610 oh         1 8GT      -0.592800
     19 C2'         -9.4640     5.6290    -1.3970 c3         1 8GT       0.079100
     20 O2'        -10.1650     6.5610    -0.5730 oh         1 8GT      -0.589800
     21 C1'         -8.3530     6.3370    -2.2030 c3         1 8GT       0.330500
     22 N9          -8.8140     6.6240    -3.5640 n          1 8GT      -0.361000
     23 C8          -9.1540     5.7050    -4.4870 c          1 8GT       0.797500
     24 N7          -9.5290     6.3260    -5.6220 ns         1 8GT      -0.420100
     25 C5          -9.4220     7.7040    -5.4130 cc         1 8GT      -0.455600
     26 C6          -9.6670     8.8330    -6.2080 c          1 8GT       0.786700
     27 O6         -10.0650     8.7130    -7.3570 o          1 8GT      -0.803500
     28 N1          -9.4590    10.0560    -5.6740 ns         1 8GT      -0.487400
     29 C2          -9.0090    10.1740    -4.3930 cc         1 8GT       0.013800
     30 N2          -8.7990    11.4250    -3.8720 nz         1 8GT      -0.586600
     31 N3          -8.7770     9.1190    -3.6420 nd         1 8GT      -0.727300
     32 C4          -8.9700     7.8820    -4.1110 cd         1 8GT       0.292200
     33 O8          -9.1280     4.5000    -4.3210 o          1 8GT      -0.723500
     34 H5'1        -6.5480     3.0080     0.0380 h1         1 8GT       0.062200
     35 H5'2        -6.9110     2.8380    -1.6850 h1         1 8GT       0.062200
     36 H4'         -6.7480     5.5050    -0.2140 h1         1 8GT       0.058700
     37 H3'         -9.0080     3.5950    -0.7730 h1         1 8GT       0.055700
     38 H2          -9.3600     4.1510     1.2580 ho         1 8GT       0.384000
     39 H1         -10.1460     5.1180    -2.0660 h1         1 8GT       0.067700
     40 H2'        -11.0940     6.4410    -0.6830 ho         1 8GT       0.382000
     41 H1'         -8.0500     7.2480    -1.7020 h2         1 8GT       0.083700
     42 HN7         -9.8300     5.8800    -6.4660 hn         1 8GT       0.326500
     43 HN1         -9.6350    10.8760    -6.2190 hn         1 8GT       0.258500
     44 HN21        -9.6570    11.9410    -3.8870 hn         1 8GT       0.329467
     45 HN22        -8.1120    11.9040    -4.4200 hn         1 8GT       0.329467
     46 H23         -8.4760    11.3440    -2.9280 hn         1 8GT       0.329467
@<TRIPOS>BOND
     1     1     2 1   
     2     1     3 1   
     3     1     4 1   
     4     1     5 1   
     5     5     6 1   
     6     6     7 1   
     7     6     8 1   
     8     6     9 1   
     9     9    10 1   
    10    10    11 1   
    11    10    12 1   
    12    10    13 1   
    13    13    14 1   
    14    14    15 1   
    15    14    34 1   
    16    14    35 1   
    17    15    16 1   
    18    15    17 1   
    19    15    36 1   
    20    16    21 1   
    21    17    18 1   
    22    17    19 1   
    23    17    37 1   
    24    18    38 1   
    25    19    20 1   
    26    19    21 1   
    27    19    39 1   
    28    20    40 1   
    29    21    22 1   
    30    21    41 1   
    31    22    23 1   
    32    22    32 1   
    33    23    24 1   
    34    23    33 2   
    35    24    25 1   
    36    24    42 1   
    37    25    26 1   
    38    25    32 2   
    39    26    27 2   
    40    26    28 1   
    41    28    29 1   
    42    28    43 1   
    43    29    30 1   
    44    29    31 2   
    45    30    44 1   
    46    30    45 1   
    47    31    32 1   
    48    46    30 1   
@<TRIPOS>SUBSTRUCTURE
     1 8GT         1 TEMP              0 ****  ****    0 ROOT
