@<TRIPOS>MOLECULE
8GU
   51    55     1     0     0
SMALL
bcc


@<TRIPOS>ATOM
      1 C15          0.0000     0.0000     0.0000 c3         1 8GU       0.147300
      2 C17          5.3350    -2.4940     1.7360 cc         1 8GU      -0.110100
      3 C20          2.9720    -3.4830     3.2410 cc         1 8GU      -0.238100
      4 C22          2.9040    -4.6340     5.1670 ca         1 8GU      -0.359500
      5 C26          3.5880    -5.7860     7.1400 ca         1 8GU      -0.210300
      6 C28          6.3970    -1.9840     0.9420 c          1 8GU       0.638900
      7 C01          3.6760     0.8880    -4.0920 c3         1 8GU       0.241700
      8 C03          3.9720    -0.3030    -2.0580 ca         1 8GU       0.232100
      9 C04          5.3440    -0.1440    -2.2400 ca         1 8GU      -0.265000
     10 C05          6.2220    -0.6520    -1.3250 ca         1 8GU       0.066000
     11 C06          5.7430    -1.3320    -0.2050 ca         1 8GU      -0.325600
     12 C07          4.3620    -1.4970    -0.0110 ca         1 8GU       0.190100
     13 C08          3.4810    -0.9750    -0.9500 ca         1 8GU      -0.169300
     14 C09          1.9950    -1.1400    -0.7640 c3         1 8GU       0.229100
     15 N10          1.4690     0.0000     0.0000 n3         1 8GU      -0.537600
     16 C11          1.9920     0.0000     1.3730 c3         1 8GU       0.147300
     17 C12          1.4850     1.2420     2.1100 c3         1 8GU       0.146300
     18 N13          0.0160     1.2420     2.1100 n7         1 8GU      -0.589200
     19 C14         -0.5080     1.2420     0.7370 c3         1 8GU       0.146300
     20 O16          4.1620    -2.1820     1.1350 os         1 8GU      -0.181200
     21 C19          4.2880    -3.6560     3.6170 cd         1 8GU      -0.264800
     22 N21          2.1600    -4.0610     4.1580 na         1 8GU       0.396600
     23 C23          4.2620    -4.4130     4.8840 ca         1 8GU       0.402100
     24 N24          5.2060    -4.8630     5.7000 nb         1 8GU      -0.527000
     25 C25          4.9050    -5.5290     6.7960 ca         1 8GU       0.383200
     26 C27          2.5660    -5.3360     6.3220 ca         1 8GU      -0.063000
     27 O29          7.5940    -2.0710     1.1630 o          1 8GU      -0.553100
     28 H1          -0.3600    -0.8890     0.5030 h1         1 8GU       0.015450
     29 H2          -0.3600     0.0150    -1.0220 h1         1 8GU       0.015450
     30 H4           3.3590    -6.3350     8.0450 ha         1 8GU       0.113000
     31 H5           2.8850     1.2400    -4.7440 h1         1 8GU       0.000033
     32 H6           4.3230     0.2130    -4.6410 h1         1 8GU       0.000033
     33 H7           4.2540     1.7330    -3.7370 h1         1 8GU       0.000033
     34 H8           5.7150     0.3850    -3.1090 ha         1 8GU       0.128000
     35 H9           7.2890    -0.5270    -1.4690 ha         1 8GU       0.109000
     36 H10          1.5120    -1.1790    -1.7320 h1         1 8GU       0.015700
     37 H11          1.7990    -2.0580    -0.2240 h1         1 8GU       0.015700
     38 H13          3.0750     0.0150     1.3460 h1         1 8GU       0.015450
     39 H14          1.6500    -0.8890     1.8890 h1         1 8GU       0.015450
     40 H15          1.8450     1.2270     3.1310 h1         1 8GU       0.011200
     41 H16          1.8450     2.1310     1.6070 h1         1 8GU       0.011200
     42 H17         -0.3180     2.0510     2.5940 hn         1 8GU       0.252800
     43 H19         -1.5910     1.2270     0.7640 h1         1 8GU       0.011200
     44 H20         -0.1670     2.1320     0.2210 h1         1 8GU       0.011200
     45 H22          1.1610    -4.0720     4.1090 hn         1 8GU       0.115700
     46 H23          5.7020    -5.8820     7.4390 h4         1 8GU      -0.018900
     47 H24          1.5290    -5.5270     6.5730 ha         1 8GU       0.105000
     48 C18          5.4730    -3.1830     2.9020 cf         1 8GU       0.072000
     49 O02          3.1080     0.2060    -2.9740 os         1 8GU      -0.296900
     50 H3           2.6400    -2.9660     2.3480 h4         1 8GU       0.167000
     51 H21          6.4610    -3.3840     3.2990 ha         1 8GU       0.141000
@<TRIPOS>BOND
     1     1    15 1   
     2     1    19 1   
     3     1    28 1   
     4     1    29 1   
     5     2     6 1   
     6     2    20 1   
     7     2    48 2   
     8     3    21 2   
     9     3    22 1   
    10     3    50 1   
    11     4    22 1   
    12     4    23 ar  
    13     4    26 ar  
    14     5    25 ar  
    15     5    26 ar  
    16     5    30 1   
    17     6    11 1   
    18     6    27 2   
    19     7    31 1   
    20     7    32 1   
    21     7    33 1   
    22     7    49 1   
    23     8     9 ar  
    24     8    13 ar  
    25     8    49 1   
    26     9    10 ar  
    27     9    34 1   
    28    10    11 ar  
    29    10    35 1   
    30    11    12 ar  
    31    12    13 ar  
    32    12    20 1   
    33    13    14 1   
    34    14    15 1   
    35    14    36 1   
    36    14    37 1   
    37    15    16 1   
    38    16    17 1   
    39    16    38 1   
    40    16    39 1   
    41    17    18 1   
    42    17    40 1   
    43    17    41 1   
    44    18    19 1   
    45    18    42 1   
    46    19    43 1   
    47    19    44 1   
    48    21    23 1   
    49    21    48 1   
    50    22    45 1   
    51    23    24 ar  
    52    24    25 ar  
    53    25    46 1   
    54    26    47 1   
    55    48    51 1   
@<TRIPOS>SUBSTRUCTURE
     1 8GU         1 TEMP              0 ****  ****    0 ROOT
