@<TRIPOS>MOLECULE
molecule
   61    65     1     0     0
SMALL
bcc


@<TRIPOS>ATOM
      1 N1           0.0000     0.0000     0.0000 nc         1 8GV      -0.360000
      2 N3           1.2860     0.0000     0.0000 nc         1 8GV      -0.344000
      3 C4           4.1550     0.0000     0.7130 ca         1 8GV      -0.219300
      4 C5           5.7440    -0.0020     2.4870 ca         1 8GV      -0.208300
      5 C6           7.0050     0.1230     7.8100 ca         1 8GV      -0.084000
      6 C7          -0.4480    -0.0000     1.2280 cd         1 8GV       0.360400
      7 C8           5.9930    -0.0990     6.8750 ca         1 8GV      -0.127600
      8 C10          6.7880    -0.1830     9.1440 ca         1 8GV       0.140100
      9 C13          1.7260     0.0000     1.2390 cd         1 8GV       0.303500
     10 C15          3.9080    -0.7430     6.0660 c3         1 8GV       0.196300
     11 C17          8.4370    -0.4820    13.7180 c3         1 8GV       0.130800
     12 C20         -0.1140     1.2480     4.0220 c3         1 8GV      -0.109600
     13 C21         -0.1120    -1.2510     4.0220 c3         1 8GV      -0.109600
     14 C1           5.4760     0.0000     1.1290 ca         1 8GV      -0.084000
     15 C2           4.5600    -0.9180     8.6260 ca         1 8GV      -0.074000
     16 C3           5.5670    -0.7020     9.5510 ca         1 8GV      -0.200000
     17 C9           4.7710    -0.6270     7.2980 ca         1 8GV      -0.140300
     18 N2           3.4340    -0.0020     2.9650 nb         1 8GV      -0.743000
     19 N4           0.6260    -0.0010     2.0530 na         1 8GV      -0.294700
     20 N5           4.7200    -0.2510     4.9470 n          1 8GV      -0.499300
     21 N6           9.5810    -0.1200    14.5680 n3         1 8GV      -0.726600
     22 O2           8.9470     1.4020    12.2950 os         1 8GV      -0.414600
     23 O3           7.7740     0.0270    10.0560 os         1 8GV      -0.310900
     24 C11          3.1410    -0.0010     1.6700 ca         1 8GV       0.423300
     25 C12          4.6860    -0.0030     3.3910 ca         1 8GV       0.590200
     26 C23          7.4820    -0.3100    11.4140 c3         1 8GV       0.144400
     27 C14          5.9230     0.1190     5.4180 c          1 8GV       0.696100
     28 C16          9.8020     1.3330    14.5520 c3         1 8GV       0.119800
     29 C18         10.0540     1.7900    13.1120 c3         1 8GV       0.140400
     30 C19          8.7020    -0.0080    12.2860 c3         1 8GV       0.148100
     31 H1           3.9120     0.0020    -0.3430 ha         1 8GV       0.170000
     32 H2           6.7670    -0.0020     2.8430 ha         1 8GV       0.190000
     33 H3           7.9590     0.5280     7.4940 ha         1 8GV       0.165000
     34 H4          -1.4880    -0.0010     1.5300 h5         1 8GV       0.072100
     35 H5           3.0200    -0.1330     6.1760 h1         1 8GV       0.062200
     36 H6           3.6360    -1.7790     5.9000 h1         1 8GV       0.062200
     37 H7           8.3100    -1.5580    13.7230 h1         1 8GV       0.043200
     38 H8           7.5410    -0.0050    14.0950 h1         1 8GV       0.043200
     39 H9           0.0800     1.1840     5.0850 hc         1 8GV       0.047367
     40 H10          0.0330     2.2680     3.6890 hc         1 8GV       0.047367
     41 H11         -1.1350     0.9460     3.8220 hc         1 8GV       0.047367
     42 H12          0.3880    -2.0700     3.5190 hc         1 8GV       0.047367
     43 H13         -0.0830    -1.4120     5.0920 hc         1 8GV       0.047367
     44 H14         -1.1430    -1.2000     3.6920 hc         1 8GV       0.047367
     45 H15         10.2570    -0.3520    16.5380 h1         1 8GV       0.035033
     46 H16          8.5070    -0.1500    16.3680 h1         1 8GV       0.035033
     47 H17          9.2680    -1.6850    15.9260 h1         1 8GV       0.035033
     48 H19          6.2830     0.0010     0.4060 ha         1 8GV       0.155000
     49 H20          3.6080    -1.3230     8.9470 ha         1 8GV       0.133000
     50 H21          5.4020    -0.9400    10.5950 ha         1 8GV       0.140000
     51 H23          6.6380     0.2760    11.7580 h1         1 8GV       0.045700
     52 H24          7.2420    -1.3640    11.4810 h1         1 8GV       0.045700
     53 H25          8.9260     1.8360    14.9420 h1         1 8GV       0.044700
     54 H26         10.6650     1.5730    15.1620 h1         1 8GV       0.044700
     55 H27         10.9580     1.3250    12.7390 h1         1 8GV       0.057700
     56 H28         10.1580     2.8680    13.0890 h1         1 8GV       0.057700
     57 H29          9.5710    -0.5210    11.8920 h1         1 8GV       0.065700
     58 C24          0.6130    -0.0020     3.5180 c3         1 8GV       0.034000
     59 O1           6.8250     0.5710     4.7390 o          1 8GV      -0.635500
     60 C22          9.3910    -0.6090    15.9400 c3         1 8GV       0.153100
     61 H18          1.5960    -0.0540     3.9690 h1         1 8GV       0.115700
@<TRIPOS>BOND
     1     2     1 1   
     2     2     9 2   
     3     1     6 2   
     4     3    14 ar  
     5     3    24 ar  
     6     9    24 1   
     7     9    19 1   
     8     6    19 1   
     9    14     4 ar  
    10    24    18 ar  
    11    19    58 1   
    12     4    25 ar  
    13    18    25 ar  
    14    25    20 1   
    15    12    58 1   
    16    58    13 1   
    17    20    27 1   
    18    20    10 1   
    19    59    27 2   
    20    27     7 1   
    21    10    17 1   
    22     7    17 ar  
    23     7     5 ar  
    24    17    15 ar  
    25     5     8 ar  
    26    15    16 ar  
    27    26    23 1   
    28    26    30 1   
    29     8    16 ar  
    30     8    23 1   
    31    11    30 1   
    32    11    21 1   
    33    30    22 1   
    34    60    21 1   
    35    21    28 1   
    36    22    29 1   
    37    29    28 1   
    38     3    31 1   
    39     4    32 1   
    40     5    33 1   
    41     6    34 1   
    42    10    35 1   
    43    10    36 1   
    44    11    37 1   
    45    11    38 1   
    46    12    39 1   
    47    12    40 1   
    48    12    41 1   
    49    13    42 1   
    50    13    43 1   
    51    13    44 1   
    52    60    45 1   
    53    60    46 1   
    54    60    47 1   
    55    58    61 1   
    56    14    48 1   
    57    15    49 1   
    58    16    50 1   
    59    26    51 1   
    60    26    52 1   
    61    28    53 1   
    62    28    54 1   
    63    29    55 1   
    64    29    56 1   
    65    30    57 1   
@<TRIPOS>SUBSTRUCTURE
     1 8GV         1 TEMP              0 ****  ****    0 ROOT
