@<TRIPOS>MOLECULE
8GV
   61    65     1     0     0
SMALL
bcc


@<TRIPOS>ATOM
      1 N1           0.0000     0.0000     0.0000 nc         1 8GV      -0.333000
      2 N3           1.2860     0.0000     0.0000 nc         1 8GV      -0.318000
      3 C4           4.1550     0.0000     0.7130 ca         1 8GV      -0.185300
      4 C5           5.7440    -0.0020     2.4870 ca         1 8GV      -0.186300
      5 C6           7.0050     0.1230     7.8100 ca         1 8GV      -0.053000
      6 C7          -0.4480    -0.0000     1.2280 cd         1 8GV       0.197400
      7 C8           5.9930    -0.0990     6.8750 ca         1 8GV      -0.138600
      8 C10          6.7880    -0.1830     9.1440 ca         1 8GV       0.145100
      9 C13          1.7260     0.0000     1.2390 cd         1 8GV       0.114500
     10 C15          3.9080    -0.7430     6.0660 c3         1 8GV       0.169300
     11 C17          8.4370    -0.4820    13.7180 c3         1 8GV       0.119800
     12 C20         -0.1140     1.2480     4.0220 c3         1 8GV      -0.014100
     13 C21         -0.1120    -1.2510     4.0220 c3         1 8GV      -0.014100
     14 C1           5.4760     0.0000     1.1290 ca         1 8GV      -0.056000
     15 C2           4.5600    -0.9180     8.6260 ca         1 8GV      -0.034000
     16 C3           5.5670    -0.7020     9.5510 ca         1 8GV      -0.190000
     17 C9           4.7710    -0.6270     7.2980 ca         1 8GV      -0.152300
     18 N2           3.4340    -0.0020     2.9650 nb         1 8GV      -0.632000
     19 N4           0.6260    -0.0010     2.0530 na         1 8GV       0.185300
     20 N5           4.7200    -0.2510     4.9470 n          1 8GV      -0.169300
     21 N6           9.5810    -0.1200    14.5680 n3         1 8GV      -0.538600
     22 O2           8.9470     1.4020    12.2950 os         1 8GV      -0.400600
     23 O3           7.7740     0.0270    10.0560 os         1 8GV      -0.288900
     24 C11          3.1410    -0.0010     1.6700 ca         1 8GV       0.375300
     25 C12          4.6860    -0.0030     3.3910 ca         1 8GV       0.437200
     26 C23          7.4820    -0.3100    11.4140 c3         1 8GV       0.201400
     27 C14          5.9230     0.1190     5.4180 c          1 8GV       0.635100
     28 C16          9.8020     1.3330    14.5520 c3         1 8GV       0.109800
     29 C18         10.0540     1.7900    13.1120 c3         1 8GV       0.216400
     30 C19          8.7020    -0.0080    12.2860 c3         1 8GV       0.174100
     31 H1           3.9120     0.0020    -0.3430 ha         1 8GV       0.142000
     32 H2           6.7670    -0.0020     2.8430 ha         1 8GV       0.167000
     33 H3           7.9590     0.5280     7.4940 ha         1 8GV       0.131000
     34 H4          -1.4880    -0.0010     1.5300 h5         1 8GV       0.033100
     35 H5           3.0200    -0.1330     6.1760 h1         1 8GV       0.022700
     36 H6           3.6360    -1.7790     5.9000 h1         1 8GV       0.022700
     37 H7           8.3100    -1.5580    13.7230 h1         1 8GV       0.017200
     38 H8           7.5410    -0.0050    14.0950 h1         1 8GV       0.017200
     39 H9           0.0800     1.1840     5.0850 hc         1 8GV       0.016700
     40 H10          0.0330     2.2680     3.6890 hc         1 8GV       0.016700
     41 H11         -1.1350     0.9460     3.8220 hc         1 8GV       0.016700
     42 H12          0.3880    -2.0700     3.5190 hc         1 8GV       0.016700
     43 H13         -0.0830    -1.4120     5.0920 hc         1 8GV       0.016700
     44 H14         -1.1430    -1.2000     3.6920 hc         1 8GV       0.016700
     45 H15         10.2570    -0.3520    16.5380 h1         1 8GV       0.002033
     46 H16          8.5070    -0.1500    16.3680 h1         1 8GV       0.002033
     47 H17          9.2680    -1.6850    15.9260 h1         1 8GV       0.002033
     48 H19          6.2830     0.0010     0.4060 ha         1 8GV       0.118000
     49 H20          3.6080    -1.3230     8.9470 ha         1 8GV       0.102000
     50 H21          5.4020    -0.9400    10.5950 ha         1 8GV       0.122000
     51 H23          6.6380     0.2760    11.7580 h1         1 8GV       0.009200
     52 H24          7.2420    -1.3640    11.4810 h1         1 8GV       0.009200
     53 H25          8.9260     1.8360    14.9420 h1         1 8GV       0.017700
     54 H26         10.6650     1.5730    15.1620 h1         1 8GV       0.017700
     55 H27         10.9580     1.3250    12.7390 h1         1 8GV       0.015700
     56 H28         10.1580     2.8680    13.0890 h1         1 8GV       0.015700
     57 H29          9.5710    -0.5210    11.8920 h1         1 8GV       0.031700
     58 C24          0.6130    -0.0020     3.5180 c3         1 8GV      -0.099000
     59 O1           6.8250     0.5710     4.7390 o          1 8GV      -0.674500
     60 C22          9.3910    -0.6090    15.9400 c3         1 8GV       0.189100
     61 H18          1.5960    -0.0540     3.9690 h1         1 8GV       0.092700
@<TRIPOS>BOND
     1     1     2 1   
     2     1     6 2   
     3     2     9 2   
     4     3    14 ar  
     5     3    24 ar  
     6     3    31 1   
     7     4    14 ar  
     8     4    25 ar  
     9     4    32 1   
    10     5     7 ar  
    11     5     8 ar  
    12     5    33 1   
    13     6    19 1   
    14     6    34 1   
    15     7    17 ar  
    16     7    27 1   
    17     8    16 ar  
    18     8    23 1   
    19     9    19 1   
    20     9    24 1   
    21    10    17 1   
    22    10    20 1   
    23    10    35 1   
    24    10    36 1   
    25    11    21 1   
    26    11    30 1   
    27    11    37 1   
    28    11    38 1   
    29    12    39 1   
    30    12    40 1   
    31    12    41 1   
    32    12    58 1   
    33    13    42 1   
    34    13    43 1   
    35    13    44 1   
    36    13    58 1   
    37    14    48 1   
    38    15    16 ar  
    39    15    17 ar  
    40    15    49 1   
    41    16    50 1   
    42    18    24 ar  
    43    18    25 ar  
    44    19    58 1   
    45    20    25 1   
    46    20    27 1   
    47    21    28 1   
    48    21    60 1   
    49    22    29 1   
    50    22    30 1   
    51    23    26 1   
    52    26    30 1   
    53    26    51 1   
    54    26    52 1   
    55    27    59 2   
    56    28    29 1   
    57    28    53 1   
    58    28    54 1   
    59    29    55 1   
    60    29    56 1   
    61    30    57 1   
    62    45    60 1   
    63    46    60 1   
    64    47    60 1   
    65    58    61 1   
@<TRIPOS>SUBSTRUCTURE
     1 8GV         1 TEMP              0 ****  ****    0 ROOT
