@<TRIPOS>MOLECULE
molecule
   51    55     1     0     0
SMALL
bcc


@<TRIPOS>ATOM
      1 C15          0.0000     0.0000     0.0000 c3         1 8GX       0.165300
      2 C17          4.2540     0.8290    -3.9670 cc         1 8GX      -0.086100
      3 C20          1.4380     1.2370    -4.8290 cc         1 8GX      -0.038100
      4 C22          0.6560     2.2820    -6.6570 ca         1 8GX      -0.182500
      5 C24          2.6520     3.0270    -7.7870 ca         1 8GX      -0.208300
      6 C28          5.5610     0.5820    -3.4700 c          1 8GX       0.577900
      7 C01          4.8330    -2.6660     1.9990 c3         1 8GX       0.126700
      8 C03          4.3600    -1.4960    -0.0140 ca         1 8GX       0.199100
      9 C04          5.7350    -1.3520    -0.1760 ca         1 8GX      -0.265000
     10 C05          6.2340    -0.6940    -1.2640 ca         1 8GX       0.017000
     11 C06          5.3630    -0.1650    -2.2160 ca         1 8GX      -0.304600
     12 C07          3.9740    -0.3040    -2.0610 ca         1 8GX       0.200100
     13 C08          3.4830    -0.9760    -0.9510 ca         1 8GX      -0.140300
     14 C09          1.9950    -1.1400    -0.7630 c3         1 8GX       0.223100
     15 N10          1.4700     0.0000     0.0000 n3         1 8GX      -0.729600
     16 C11          1.9940     0.0000     1.3730 c3         1 8GX       0.165300
     17 C12          1.4870     1.2420     2.1090 c3         1 8GX       0.157800
     18 N13          0.0180     1.2440     2.1090 n7         1 8GX      -0.822200
     19 C14         -0.5070     1.2430     0.7350 c3         1 8GX       0.157800
     20 O16          3.3570     0.2950    -3.1040 os         1 8GX      -0.209200
     21 C19          2.5550     1.6780    -5.5100 cd         1 8GX      -0.164200
     22 N21          0.3220     1.5940    -5.5120 na         1 8GX      -0.157400
     23 C23          2.0590     2.3680    -6.7100 ca         1 8GX      -0.052800
     24 C25          1.8470     3.5650    -8.7540 ca         1 8GX       0.392200
     25 N26          0.5300     3.4710    -8.6790 nb         1 8GX      -0.675000
     26 C27         -0.0810     2.8590    -7.6860 ca         1 8GX       0.424200
     27 O29          6.6200     0.9160    -3.9740 o          1 8GX      -0.519100
     28 H1          -0.3600    -0.8890     0.5040 h1         1 8GX       0.041700
     29 H2          -0.3600     0.0140    -1.0220 h1         1 8GX       0.041700
     30 H4           3.7300     3.1090    -7.8570 ha         1 8GX       0.141000
     31 H5           5.4730    -3.3930     1.5150 h1         1 8GX       0.046367
     32 H6           4.3040    -3.1400     2.8180 h1         1 8GX       0.046367
     33 H7           5.4360    -1.8520     2.3830 h1         1 8GX       0.046367
     34 H8           6.4120    -1.7660     0.5610 ha         1 8GX       0.143000
     35 H9           7.3050    -0.5830    -1.3880 ha         1 8GX       0.147000
     36 H10          1.7980    -2.0580    -0.2230 h1         1 8GX       0.045700
     37 H11          1.5120    -1.1800    -1.7320 h1         1 8GX       0.045700
     38 H13          1.6520    -0.8890     1.8890 h1         1 8GX       0.041700
     39 H14          3.0770     0.0140     1.3450 h1         1 8GX       0.041700
     40 H15          1.8470     1.2270     3.1310 h1         1 8GX       0.037700
     41 H16          1.8480     2.1310     1.6060 h1         1 8GX       0.037700
     42 H17         -0.3160     2.0540     2.5920 hn         1 8GX       0.352800
     43 H19         -0.1650     2.1320     0.2190 h1         1 8GX       0.037700
     44 H20         -1.5900     1.2280     0.7630 h1         1 8GX       0.037700
     45 H22         -0.6130     1.3880    -5.2220 hn         1 8GX       0.302700
     46 H23          2.2960     4.0800    -9.5940 h4         1 8GX       0.025100
     47 H24         -1.1630     2.8070    -7.6680 h4         1 8GX       0.019100
     48 C18          3.9510     1.4960    -5.1160 cf         1 8GX       0.021000
     49 O02          3.8760    -2.1540     1.0710 os         1 8GX      -0.323900
     50 H3           1.4510     0.6900    -3.8940 h4         1 8GX       0.199000
     51 H21          4.7450     1.8900    -5.7380 ha         1 8GX       0.173000
@<TRIPOS>BOND
     1    17    16 1
     2    17    18 1
     3    16    15 1
     4    18    19 1
     5     7    49 1
     6    49     8 1
     7    15    14 1
     8    15     1 1
     9    19     1 1
    10    14    13 1
    11     8    13 ar
    12     8     9 ar
    13    13    12 ar
    14     9    10 ar
    15    12    11 ar
    16    12    20 1
    17    10    11 ar
    18    24     5 ar
    19    24    25 ar
    20    11     6 1
    21    20     2 1
    22     5    23 ar
    23    25    26 ar
    24     2     6 1
    25     2    48 2
    26     6    27 2
    27    26     4 ar
    28    23     4 ar
    29    23    21 1
    30     4    22 1
    31    48    21 1
    32    21     3 2
    33    22     3 1
    34     1    28 1
    35     1    29 1
    36     3    50 1
    37     5    30 1
    38     7    31 1
    39     7    32 1
    40     7    33 1
    41     9    34 1
    42    10    35 1
    43    14    36 1
    44    14    37 1
    45    16    38 1
    46    16    39 1
    47    17    40 1
    48    17    41 1
    49    18    42 1
    50    19    43 1
    51    19    44 1
    52    48    51 1
    53    22    45 1
    54    24    46 1
    55    26    47 1
@<TRIPOS>SUBSTRUCTURE
     1 8GX         1 TEMP              0 ****  ****    0 ROOT
