@<TRIPOS>MOLECULE
8GX
   51    55     1     0     0
SMALL
bcc


@<TRIPOS>ATOM
      1 C15          0.0000     0.0000     0.0000 c3         1 8GX       0.147800
      2 C17          4.2540     0.8290    -3.9670 cc         1 8GX      -0.099100
      3 C20          1.4380     1.2370    -4.8290 cc         1 8GX      -0.232100
      4 C22          0.6560     2.2820    -6.6570 ca         1 8GX      -0.373500
      5 C24          2.6520     3.0270    -7.7870 ca         1 8GX      -0.169300
      6 C28          5.5610     0.5820    -3.4700 c          1 8GX       0.638900
      7 C01          4.8330    -2.6660     1.9990 c3         1 8GX       0.242700
      8 C03          4.3600    -1.4960    -0.0140 ca         1 8GX       0.214100
      9 C04          5.7350    -1.3520    -0.1760 ca         1 8GX      -0.263000
     10 C05          6.2340    -0.6940    -1.2640 ca         1 8GX       0.066000
     11 C06          5.3630    -0.1650    -2.2160 ca         1 8GX      -0.326600
     12 C07          3.9740    -0.3040    -2.0610 ca         1 8GX       0.208100
     13 C08          3.4830    -0.9760    -0.9510 ca         1 8GX      -0.166300
     14 C09          1.9950    -1.1400    -0.7630 c3         1 8GX       0.228100
     15 N10          1.4700     0.0000     0.0000 n3         1 8GX      -0.543600
     16 C11          1.9940     0.0000     1.3730 c3         1 8GX       0.147800
     17 C12          1.4870     1.2420     2.1090 c3         1 8GX       0.146800
     18 N13          0.0180     1.2440     2.1090 n7         1 8GX      -0.585200
     19 C14         -0.5070     1.2430     0.7350 c3         1 8GX       0.146800
     20 O16          3.3570     0.2950    -3.1040 os         1 8GX      -0.172200
     21 C19          2.5550     1.6780    -5.5100 cd         1 8GX      -0.151200
     22 N21          0.3220     1.5940    -5.5120 na         1 8GX       0.405600
     23 C23          2.0590     2.3680    -6.7100 ca         1 8GX      -0.050800
     24 C25          1.8470     3.5650    -8.7540 ca         1 8GX       0.378200
     25 N26          0.5300     3.4710    -8.6790 nb         1 8GX      -0.573000
     26 C27         -0.0810     2.8590    -7.6860 ca         1 8GX       0.422200
     27 O29          6.6200     0.9160    -3.9740 o          1 8GX      -0.555100
     28 H1          -0.3600     0.0140    -1.0220 h1         1 8GX       0.017450
     29 H2          -0.3600    -0.8890     0.5040 h1         1 8GX       0.017450
     30 H4           3.7300     3.1090    -7.8570 ha         1 8GX       0.114000
     31 H5           4.3040    -3.1390     2.8180 h1         1 8GX       0.001367
     32 H6           5.4370    -1.8530     2.3820 h1         1 8GX       0.001367
     33 H7           5.4720    -3.3940     1.5140 h1         1 8GX       0.001367
     34 H8           6.4120    -1.7660     0.5610 ha         1 8GX       0.128000
     35 H9           7.3050    -0.5830    -1.3880 ha         1 8GX       0.109000
     36 H10          1.7980    -2.0580    -0.2230 h1         1 8GX       0.016200
     37 H11          1.5120    -1.1800    -1.7320 h1         1 8GX       0.016200
     38 H13          3.0770     0.0140     1.3450 h1         1 8GX       0.017450
     39 H14          1.6520    -0.8890     1.8890 h1         1 8GX       0.017450
     40 H15          1.8480     2.1310     1.6060 h1         1 8GX       0.009700
     41 H16          1.8470     1.2270     3.1310 h1         1 8GX       0.009700
     42 H17         -0.3160     2.0540     2.5920 hn         1 8GX       0.252800
     43 H19         -0.1650     2.1320     0.2190 h1         1 8GX       0.009700
     44 H20         -1.5900     1.2280     0.7630 h1         1 8GX       0.009700
     45 H22         -0.6130     1.3880    -5.2220 hn         1 8GX       0.114700
     46 H23          2.2960     4.0800    -9.5940 h4         1 8GX      -0.018900
     47 H24         -1.1630     2.8070    -7.6680 h4         1 8GX      -0.025900
     48 C18          3.9510     1.4960    -5.1160 cf         1 8GX       0.058000
     49 O02          3.8760    -2.1540     1.0710 os         1 8GX      -0.306900
     50 H3           1.4510     0.6900    -3.8940 h4         1 8GX       0.167000
     51 H21          4.7450     1.8900    -5.7380 ha         1 8GX       0.130000
@<TRIPOS>BOND
     1     1    15 1   
     2     1    19 1   
     3     1    28 1   
     4     1    29 1   
     5     2     6 1   
     6     2    20 1   
     7     2    48 2   
     8     3    21 2   
     9     3    22 1   
    10     3    50 1   
    11     4    22 1   
    12     4    23 ar  
    13     4    26 ar  
    14     5    23 ar  
    15     5    24 ar  
    16     5    30 1   
    17     6    11 1   
    18     6    27 2   
    19     7    31 1   
    20     7    32 1   
    21     7    33 1   
    22     7    49 1   
    23     8     9 ar  
    24     8    13 ar  
    25     8    49 1   
    26     9    10 ar  
    27     9    34 1   
    28    10    11 ar  
    29    10    35 1   
    30    11    12 ar  
    31    12    13 ar  
    32    12    20 1   
    33    13    14 1   
    34    14    15 1   
    35    14    36 1   
    36    14    37 1   
    37    15    16 1   
    38    16    17 1   
    39    16    38 1   
    40    16    39 1   
    41    17    18 1   
    42    17    40 1   
    43    17    41 1   
    44    18    19 1   
    45    18    42 1   
    46    19    43 1   
    47    19    44 1   
    48    21    23 1   
    49    21    48 1   
    50    22    45 1   
    51    24    25 ar  
    52    24    46 1   
    53    25    26 ar  
    54    26    47 1   
    55    48    51 1   
@<TRIPOS>SUBSTRUCTURE
     1 8GX         1 TEMP              0 ****  ****    0 ROOT
