@<TRIPOS>MOLECULE
molecule
   52    55     1     0     0
SMALL
bcc


@<TRIPOS>ATOM
      1 C5           0.0000     0.0000     0.0000 ca         1 8GY       0.141100
      2 C6           1.3890     0.0000     0.0000 ca         1 8GY      -0.134000
      3 C7           2.0830     0.0000     1.1960 ca         1 8GY      -0.078000
      4 C8           1.4000     0.0010     2.3910 ca         1 8GY      -0.136300
      5 C13          0.0020     0.0010     2.4050 ca         1 8GY      -0.120600
      6 C15          0.5570     0.0010     6.0300 ca         1 8GY       0.588200
      7 C17          1.6700     0.1070     8.1500 ca         1 8GY      -0.065000
      8 C21         -2.0420    -0.2040     8.5980 cc         1 8GY       0.302500
      9 C24         -4.1820    -0.3790     8.9300 cd         1 8GY       0.357400
     10 C26         -3.4770    -0.3170     6.5080 c3         1 8GY       0.022000
     11 C28         -4.3700     0.8640     6.1220 c3         1 8GY      -0.094100
     12 C1          -2.7160     1.2620    -0.8840 c3         1 8GY      -0.105600
     13 C2          -2.1000    -0.1190    -1.1080 c3         1 8GY       0.133100
     14 C3          -2.6270    -0.7070    -2.4190 c3         1 8GY      -0.105600
     15 O4          -0.6770    -0.0020    -1.1780 os         1 8GY      -0.324900
     16 C9           1.8420     0.0010     3.8320 c3         1 8GY       0.153300
     17 N10          0.6150     0.0020     4.6380 n          1 8GY      -0.462300
     18 C11         -0.4450     0.0010     3.8110 c          1 8GY       0.714100
     19 O12         -1.6070     0.0020     4.1700 o          1 8GY      -0.575500
     20 C14         -0.6960    -0.0050     1.1970 ca         1 8GY      -0.150000
     21 C16          1.7340     0.1060     6.7660 ca         1 8GY      -0.290300
     22 C18          0.4280     0.0010     8.7570 ca         1 8GY      -0.241300
     23 C19         -0.7120    -0.0920     7.9610 ca         1 8GY       0.445300
     24 N20         -0.6140    -0.0940     6.6360 nb         1 8GY      -0.720000
     25 N22         -2.2930    -0.2250     9.8880 nc         1 8GY      -0.345000
     26 N23         -3.5610    -0.3280    10.0780 nc         1 8GY      -0.364000
     27 N25         -3.2470    -0.3030     7.9550 na         1 8GY      -0.293700
     28 C29         -4.1640    -1.6260     6.1130 c3         1 8GY       0.136400
     29 O30         -4.2820    -1.6910     4.6910 oh         1 8GY      -0.593800
     30 H1           1.9290    -0.0010    -0.9390 ha         1 8GY       0.152000
     31 H2           3.1670    -0.0000     1.1930 ha         1 8GY       0.138000
     32 H3           2.5710     0.1840     8.7450 ha         1 8GY       0.146000
     33 H4          -5.2530    -0.4660     8.7860 h5         1 8GY       0.072100
     34 H5          -2.5290    -0.2360     5.9910 h1         1 8GY       0.164700
     35 H6          -4.3440     0.9990     5.0470 hc         1 8GY       0.047367
     36 H7          -4.0100     1.7630     6.6080 hc         1 8GY       0.047367
     37 H8          -5.3870     0.6650     6.4370 hc         1 8GY       0.047367
     38 H9          -3.5690     1.1740    -0.2220 hc         1 8GY       0.048700
     39 H10         -1.9790     1.9180    -0.4370 hc         1 8GY       0.048700
     40 H11         -3.0370     1.6730    -1.8330 hc         1 8GY       0.048700
     41 H12         -2.3700    -0.7710    -0.2850 h1         1 8GY       0.051700
     42 H13         -2.3060    -0.0870    -3.2470 hc         1 8GY       0.048700
     43 H14         -3.7100    -0.7390    -2.3900 hc         1 8GY       0.048700
     44 H15         -2.2400    -1.7100    -2.5470 hc         1 8GY       0.048700
     45 H16          2.4230     0.8910     4.0420 h1         1 8GY       0.065200
     46 H17          2.4230    -0.8880     4.0420 h1         1 8GY       0.065200
     47 H18         -1.7790    -0.0050     1.1950 ha         1 8GY       0.159000
     48 H19          2.6890     0.1880     6.2630 ha         1 8GY       0.140000
     49 H20          0.3450    -0.0020     9.8370 ha         1 8GY       0.169000
     50 H21         -5.1500    -1.6660     6.5600 h1         1 8GY       0.022700
     51 H22         -3.5740    -2.4640     6.4650 h1         1 8GY       0.022700
     52 H23         -4.6280    -2.5330     4.4420 ho         1 8GY       0.402000
@<TRIPOS>BOND
     1    26     9 2
     2    26    25 1
     3     9    27 1
     4    25     8 2
     5     8    27 1
     6     8    23 1
     7    27    10 1
     8    11    10 1
     9    23    22 ar
    10    23    24 ar
    11    22     7 ar
    12    29    28 1
    13    10    28 1
    14    24     6 ar
    15     7    21 ar
    16     6    21 ar
    17     6    17 1
    18    16    17 1
    19    16     4 1
    20    17    18 1
    21     4     3 ar
    22     4     5 ar
    23    18    19 2
    24    18     5 1
    25     3     2 ar
    26     5    20 ar
    27     2     1 ar
    28    20     1 ar
    29     1    15 1
    30    15    13 1
    31    14    13 1
    32    13    12 1
    33     2    30 1
    34     3    31 1
    35     7    32 1
    36     9    33 1
    37    10    34 1
    38    11    35 1
    39    11    36 1
    40    11    37 1
    41    12    38 1
    42    12    39 1
    43    12    40 1
    44    13    41 1
    45    14    42 1
    46    14    43 1
    47    14    44 1
    48    16    45 1
    49    16    46 1
    50    20    47 1
    51    21    48 1
    52    22    49 1
    53    28    50 1
    54    28    51 1
    55    29    52 1
@<TRIPOS>SUBSTRUCTURE
     1 8GY         1 TEMP              0 ****  ****    0 ROOT
