@<TRIPOS>MOLECULE
8H0
   56    60     1     0     0
SMALL
bcc


@<TRIPOS>ATOM
      1 C11          0.0000     0.0000     0.0000 ca         1 8H0       0.041600
      2 C12          1.3830     0.0000     0.0000 ca         1 8H0      -0.137000
      3 C13          2.0720     0.0000     1.2090 ca         1 8H0      -0.161200
      4 C14          1.3500     0.0000     2.4190 ca         1 8H0      -0.285900
      5 C15         -0.0490     0.0010     2.3960 ca         1 8H0       0.005000
      6 C16         -0.7090     0.0000     1.2030 ca         1 8H0      -0.174000
      7 N18          3.5230    -0.0000     2.9360 nc         1 8H0      -0.642100
      8 C21         -0.3210    -1.1870    -4.5480 ca         1 8H0       0.421600
      9 C22         -0.9520    -1.0970    -5.8030 ca         1 8H0       0.096800
     10 C27         -2.8180     0.5890    -9.5130 c3         1 8H0       0.152300
     11 C30         -4.2090    -0.0490    -7.0520 c3         1 8H0      -0.046400
     12 C01          1.2040    -5.4010    -9.2390 c3         1 8H0       0.003900
     13 C02          0.6470    -4.6560    -8.0240 c3         1 8H0      -0.025400
     14 C04          0.7260    -2.5390    -6.7370 ca         1 8H0      -0.061300
     15 C05          1.3580    -2.6540    -5.5350 ca         1 8H0      -0.097000
     16 C06          0.8480    -1.9800    -4.4160 ca         1 8H0      -0.291600
     17 C07          1.4600    -2.0620    -3.1510 ca         1 8H0       0.489200
     18 N08          0.9220    -1.4010    -2.1490 nb         1 8H0      -0.657000
     19 C09         -0.1780    -0.6660    -2.3100 ca         1 8H0       0.684900
     20 N10         -0.6940     0.0060    -1.2140 nu         1 8H0      -0.287300
     21 C17          2.3440     0.0010     3.4880 cd         1 8H0       0.441800
     22 N19          3.4020    -0.0000     1.5430 na         1 8H0       0.409900
     23 N20         -0.7930    -0.5520    -3.4700 nb         1 8H0      -0.658000
     24 C23         -0.4260    -1.7670    -6.8710 ca         1 8H0      -0.206000
     25 O24         -2.0760    -0.3480    -5.9520 os         1 8H0      -0.267900
     26 C25         -2.7280    -0.4010    -7.2210 c3         1 8H0       0.158100
     27 C26         -2.0770     0.6070    -8.1730 c3         1 8H0      -0.046400
     28 N28         -4.2300     0.9330    -9.2970 n7         1 8H0      -0.578200
     29 C29         -4.8880    -0.0470    -8.4240 c3         1 8H0       0.152300
     30 H1           1.9270    -0.0000    -0.9370 ha         1 8H0       0.134000
     31 H2          -0.6060     0.0010     3.3250 ha         1 8H0       0.100000
     32 H3          -1.7920     0.0000     1.1880 ha         1 8H0       0.110000
     33 H5          -2.3700     1.3130   -10.1820 h1         1 8H0       0.005700
     34 H6          -2.7520    -0.4010    -9.9480 h1         1 8H0       0.005700
     35 H7          -4.2970     0.9340    -6.6050 hc         1 8H0       0.033700
     36 H8          -4.6840    -0.7850    -6.4150 hc         1 8H0       0.033700
     37 H9           0.7520    -6.3830    -9.3000 hc         1 8H0       0.001033
     38 H10          2.2780    -5.5030    -9.1380 hc         1 8H0       0.001033
     39 H11          0.9780    -4.8430   -10.1400 hc         1 8H0       0.001033
     40 H12         -0.4280    -4.5610    -8.1210 hc         1 8H0       0.015200
     41 H13          0.8790    -5.2360    -7.1390 hc         1 8H0       0.015200
     42 H14          1.0430    -2.7060    -8.8350 hc         1 8H0       0.018200
     43 H15          2.3510    -3.3600    -7.8400 hc         1 8H0       0.018200
     44 H16          2.3120    -3.1640    -5.4720 ha         1 8H0       0.113000
     45 H17          2.3540    -2.6560    -3.0070 h4         1 8H0      -0.013900
     46 H19         -1.5510     0.5150    -1.2980 hn         1 8H0       0.297800
     47 H20          2.1380     0.0010     4.5520 h4         1 8H0       0.011800
     48 H22         -0.9110    -1.6970    -7.8370 ha         1 8H0       0.133000
     49 H23         -2.6410    -1.3970    -7.6370 h1         1 8H0       0.019700
     50 H24         -2.1350     1.5990    -7.7430 hc         1 8H0       0.033700
     51 H25         -1.0400     0.3350    -8.3320 hc         1 8H0       0.033700
     52 H26         -4.7040     0.9660   -10.1780 hn         1 8H0       0.252800
     53 H28         -5.9320     0.2190    -8.3070 h1         1 8H0       0.005700
     54 H29         -4.8090    -1.0330    -8.8650 h1         1 8H0       0.005700
     55 H4           4.1630    -0.0010     0.8940 hn         1 8H0       0.151700
     56 C03          1.2760    -3.2650    -7.9370 c3         1 8H0       0.029900
@<TRIPOS>BOND
     1     1     2 ar  
     2     1     6 ar  
     3     1    20 1   
     4     2     3 ar  
     5     2    30 1   
     6     3     4 ar  
     7     3    22 1   
     8     4     5 ar  
     9     4    21 1   
    10     5     6 ar  
    11     5    31 1   
    12     6    32 1   
    13     7    21 2   
    14     7    22 1   
    15     8     9 ar  
    16     8    16 ar  
    17     8    23 ar  
    18     9    24 ar  
    19     9    25 1   
    20    10    27 1   
    21    10    28 1   
    22    10    33 1   
    23    10    34 1   
    24    11    26 1   
    25    11    29 1   
    26    11    35 1   
    27    11    36 1   
    28    12    13 1   
    29    12    37 1   
    30    12    38 1   
    31    12    39 1   
    32    13    40 1   
    33    13    41 1   
    34    13    56 1   
    35    14    15 ar  
    36    14    24 ar  
    37    14    56 1   
    38    15    16 ar  
    39    15    44 1   
    40    16    17 ar  
    41    17    18 ar  
    42    17    45 1   
    43    18    19 ar  
    44    19    20 1   
    45    19    23 ar  
    46    20    46 1   
    47    21    47 1   
    48    22    55 1   
    49    24    48 1   
    50    25    26 1   
    51    26    27 1   
    52    26    49 1   
    53    27    50 1   
    54    27    51 1   
    55    28    29 1   
    56    28    52 1   
    57    29    53 1   
    58    29    54 1   
    59    42    56 1   
    60    43    56 1   
@<TRIPOS>SUBSTRUCTURE
     1 8H0         1 TEMP              0 ****  ****    0 ROOT
