@<TRIPOS>MOLECULE
8H1
   64    68     1     0     0
SMALL
bcc


@<TRIPOS>ATOM
      1 C1          0.5160   -0.0930    0.1660 c3        1 8H1      0.106700
      2 N1         -1.5870   -0.1210    7.4090 nb        1 8H1     -0.773000
      3 O1          1.8660   -0.0110    0.6130 os        1 8H1     -0.292900
      4 C2          2.0580    0.0210    1.9750 ca        1 8H1      0.126100
      5 N2          3.1030    0.1510    6.0510 nb        1 8H1     -0.641000
      6 C3          1.0570   -0.0210    2.9260 ca        1 8H1     -0.180000
      7 O3         -6.5590    1.3400    6.7950 os        1 8H1     -0.339900
      8 C4          1.3690    0.0170    4.3050 ca        1 8H1     -0.138300
      9 N4         -5.1700   -1.0980    4.4120 nb        1 8H1     -0.630000
     10 C5          0.3550   -0.0270    5.3270 ca        1 8H1      0.070000
     11 N5         -6.2080    1.4130    9.5460 n4        1 8H1     -0.833600
     12 C6         -1.0290   -0.0960    5.0380 ca        1 8H1     -0.259300
     13 C7         -1.9420   -0.1290    6.0900 cp        1 8H1      0.480800
     14 C8         -0.2640   -0.0540    7.7100 ca        1 8H1      0.686200
     15 C9          0.7550    0.0040    6.6830 ca        1 8H1     -0.306600
     16 C10         2.1660    0.1050    6.9640 ca        1 8H1      0.434200
     17 C11         2.7320    0.1030    4.7100 ca        1 8H1      0.412600
     18 C12         3.7580    0.1450    3.7220 ca        1 8H1     -0.237300
     19 C13         3.4330    0.1050    2.3810 ca        1 8H1      0.140100
     20 C14         5.7120    0.2240    1.7110 c3        1 8H1      0.104700
     21 C15        -3.3810   -0.1790    5.7820 cp        1 8H1     -0.217800
     22 C16        -4.2990    0.5970    6.4980 ca        1 8H1     -0.087000
     23 C17        -5.6540    0.4980    6.1530 ca        1 8H1     -0.083200
     24 C18        -6.0530   -0.3510    5.0990 ca        1 8H1      0.397200
     25 C19        -3.8710   -1.0150    4.7500 ca        1 8H1      0.420200
     26 C20        -7.5480    0.6680    7.5640 c3        1 8H1      0.103400
     27 C21        -6.9850    0.2770    8.9450 c3        1 8H1      0.084500
     28 C22        -8.1190   -0.1760    9.8700 c3        1 8H1     -0.053100
     29 C23        -7.6190   -0.4660   11.2410 ca        1 8H1     -0.155300
     30 C24        -7.6340    0.5360   12.2210 ca        1 8H1     -0.135000
     31 C25        -7.1910    0.2590   13.5120 ca        1 8H1     -0.112500
     32 C26        -6.7300   -1.0190   13.8350 ca        1 8H1     -0.100000
     33 C27        -6.7190   -2.0200   12.8640 ca        1 8H1     -0.112500
     34 C28        -7.1630   -1.7470   11.5700 ca        1 8H1     -0.135000
     35 H1         -0.0660    0.7990    0.5010 h1        1 8H1      0.049033
     36 H1A         0.0370   -1.0350    0.5280 h1        1 8H1      0.049033
     37 H1B         0.6180   -0.1040   -0.9490 h1        1 8H1      0.049033
     38 H3          0.0070   -0.0860    2.6090 ha        1 8H1      0.141000
     39 HN3        -0.5960   -0.2160    9.7250 hn        1 8H1      0.415300
     40 HN3A        1.0120   -0.3080    9.2710 hn        1 8H1      0.415300
     41 H6         -1.3860   -0.1100    4.0000 ha        1 8H1      0.151000
     42 H10         2.5330    0.1650    8.0060 h4        1 8H1      0.022100
     43 H12         4.8080    0.2110    4.0480 ha        1 8H1      0.168000
     44 H14         5.9110    1.1650    2.2780 h1        1 8H1      0.053700
     45 H14A        6.0150   -0.6690    2.3080 h1        1 8H1      0.053700
     46 H14B        6.2350    0.2380    0.7210 h1        1 8H1      0.053700
     47 H16        -3.9610    1.2850    7.2850 ha        1 8H1      0.142000
     48 H18        -7.1110   -0.4270    4.7900 h4        1 8H1      0.041100
     49 H19        -3.1790   -1.6540    4.1670 h4        1 8H1      0.049100
     50 H20        -7.9190   -0.2610    7.0570 h1        1 8H1      0.098200
     51 H20A       -8.3820    1.4170    7.6570 h1        1 8H1      0.098200
     52 H21        -6.2430   -0.5700    8.8160 hx        1 8H1      0.118700
     53 H22        -8.9250    0.6060    9.9040 hc        1 8H1      0.091200
     54 H22A       -8.5700   -1.1000    9.4140 hc        1 8H1      0.091200
     55 H24        -8.0410    1.5310   11.9870 ha        1 8H1      0.135000
     56 H25        -7.2190    1.0450   14.2840 ha        1 8H1      0.156000
     57 H26        -6.3890   -1.2380   14.8590 ha        1 8H1      0.159000
     58 H27        -6.3700   -3.0340   13.1210 ha        1 8H1      0.156000
     59 H28        -7.1690   -2.5470   10.8130 ha        1 8H1      0.135000
     60 O2          4.3350    0.1400    1.3460 os        1 8H1     -0.294900
     61 N3          0.1000    0.0250    9.0560 nh        1 8H1     -0.932500
     62 HN5        -6.8150    2.2310    9.6520 hn        1 8H1      0.463800
     63 H52        -5.4320    1.6540    8.9170 hn        1 8H1      0.463800
     64 HN5A       -5.8560    1.1340   10.4700 hn        1 8H1      0.463800
@<TRIPOS>BOND
     1    1    3 1   
     2    1   35 1   
     3    1   36 1   
     4    1   37 1   
     5    2   13 ar  
     6    2   14 ar  
     7    3    4 1   
     8    4    6 ar  
     9    4   19 ar  
    10    5   16 ar  
    11    5   17 ar  
    12    6    8 ar  
    13    6   38 1   
    14    7   23 1   
    15    7   26 1   
    16    8   10 ar  
    17    8   17 ar  
    18    9   24 ar  
    19    9   25 ar  
    20   10   12 ar  
    21   10   15 ar  
    22   11   27 1   
    23   11   62 1   
    24   11   63 1   
    25   11   64 1   
    26   12   13 ar  
    27   12   41 1   
    28   13   21 1   
    29   14   15 ar  
    30   14   61 1   
    31   15   16 ar  
    32   16   42 1   
    33   17   18 ar  
    34   18   19 ar  
    35   18   43 1   
    36   19   60 1   
    37   20   44 1   
    38   20   45 1   
    39   20   46 1   
    40   20   60 1   
    41   21   22 ar  
    42   21   25 ar  
    43   22   23 ar  
    44   22   47 1   
    45   23   24 ar  
    46   24   48 1   
    47   25   49 1   
    48   26   27 1   
    49   26   50 1   
    50   26   51 1   
    51   27   28 1   
    52   27   52 1   
    53   28   29 1   
    54   28   53 1   
    55   28   54 1   
    56   29   30 ar  
    57   29   34 ar  
    58   30   31 ar  
    59   30   55 1   
    60   31   32 ar  
    61   31   56 1   
    62   32   33 ar  
    63   32   57 1   
    64   33   34 ar  
    65   33   58 1   
    66   34   59 1   
    67   39   61 1   
    68   40   61 1   
@<TRIPOS>SUBSTRUCTURE
     1 8H1         1 TEMP              0 ****  ****    0 ROOT
