@<TRIPOS>MOLECULE
molecule
   64    68     1     0     0
SMALL
bcc


@<TRIPOS>ATOM
      1 C1           0.0000     0.0000     0.0000 c3         1 8H1       0.126700
      2 N1          -0.1200    -0.0010     7.2870 nb         1 8H1      -0.734000
      3 O1           1.4290     0.0000     0.0000 os         1 8H1      -0.303900
      4 C2           2.0470     0.0000     1.2110 ca         1 8H1       0.145100
      5 N2           3.9550    -0.0010     4.8800 nb         1 8H1      -0.689000
      6 C3           1.2930     0.0010     2.3650 ca         1 8H1      -0.191000
      7 O3          -5.0010    -0.0030     8.6830 os         1 8H1      -0.358900
      8 C4           1.9280     0.0010     3.6070 ca         1 8H1      -0.137300
      9 N4          -4.4080     0.0010     5.1420 nb         1 8H1      -0.643000
     10 C5           1.1740     0.0010     4.8610 ca         1 8H1       0.032000
     11 N5          -6.6320     1.2510    10.7220 nz         1 8H1      -0.807600
     12 C6          -0.2180     0.0000     4.9170 ca         1 8H1      -0.229300
     13 C7          -0.8320     0.0000     6.1620 cp         1 8H1       0.483800
     14 C8           1.2020     0.0000     7.2910 ca         1 8H1       0.729200
     15 C9           1.9090     0.0000     6.0740 ca         1 8H1      -0.266600
     16 C10          3.3150    -0.0010     6.0170 ca         1 8H1       0.451200
     17 C11          3.3410    -0.0000     3.6840 ca         1 8H1       0.421600
     18 C12          4.0880    -0.0010     2.4970 ca         1 8H1      -0.247300
     19 C13          3.4450    -0.0000     1.2800 ca         1 8H1       0.005100
     20 C14          5.5980    -0.0020     0.2710 c3         1 8H1      -0.244300
     21 C15         -2.3140     0.0000     6.2230 cp         1 8H1      -0.213800
     22 C16         -2.9490    -0.0010     7.4680 ca         1 8H1      -0.077000
     23 C17         -4.3380    -0.0010     7.4970 ca         1 8H1      -0.026200
     24 C18         -5.0400     0.0000     6.2990 ca         1 8H1       0.345200
     25 C19         -3.0930     0.0010     5.0670 ca         1 8H1       0.417200
     26 C20         -6.4290    -0.0020     8.6280 c3         1 8H1       0.112400
     27 C21         -6.9940    -0.0030    10.0490 c3         1 8H1       0.114500
     28 C22         -8.5180    -0.1290     9.9920 c3         1 8H1      -0.050100
     29 C23         -9.0650    -0.2550    11.3910 ca         1 8H1      -0.152300
     30 C24         -9.4160     0.8790    12.1000 ca         1 8H1      -0.133000
     31 C25         -9.9180     0.7640    13.3840 ca         1 8H1      -0.105500
     32 C26        -10.0680    -0.4840    13.9570 ca         1 8H1      -0.097000
     33 C27         -9.7180    -1.6180    13.2480 ca         1 8H1      -0.105500
     34 C28         -9.2200    -1.5030    11.9630 ca         1 8H1      -0.133000
     35 H1          -0.3610     0.0190    -1.0210 h1         1 8H1       0.044367
     36 H1A         -0.3610    -0.8940     0.4940 h1         1 8H1       0.044367
     37 H1B         -0.3610     0.8750     0.5270 h1         1 8H1       0.044367
     38 H3           0.2150    -0.0820     2.3080 ha         1 8H1       0.141000
     39 HN3          2.1220    -0.8700     8.9330 hn         1 8H1       0.445300
     40 HN3A         2.1190     0.8640     8.9390 hn         1 8H1       0.445300
     41 H6          -0.8090     0.0010     4.0090 ha         1 8H1       0.145000
     42 H10          4.1410     0.0000     6.7170 h4         1 8H1       0.051100
     43 H12          5.1710    -0.0020     2.5380 ha         1 8H1       0.161000
     44 H14          6.4830    -0.0050     0.8950 h1         1 8H1       0.190033
     45 H14A         5.0110     0.8840     0.4800 h1         1 8H1       0.190033
     46 H14B         5.0050    -0.8850     0.4790 h1         1 8H1       0.190033
     47 H16         -2.3740    -0.0030     8.3860 ha         1 8H1       0.178000
     48 H18         -6.1230     0.0010     6.3150 h4         1 8H1       0.016100
     49 H19         -2.6110     0.0030     4.0970 h4         1 8H1       0.040100
     50 H20         -6.7700     0.8840     8.1050 h1         1 8H1       0.075200
     51 H20A        -6.7710    -0.8850     8.1030 h1         1 8H1       0.075200
     52 H21         -6.5830    -0.8410    10.6000 hx         1 8H1       0.131700
     53 H22         -8.9360     0.7520     9.5190 hc         1 8H1       0.089200
     54 H22A        -8.7870    -1.0080     9.4190 hc         1 8H1       0.089200
     55 H24         -9.2980     1.8580    11.6500 ha         1 8H1       0.129000
     56 H25        -10.1910     1.6530    13.9390 ha         1 8H1       0.154000
     57 H26        -10.4600    -0.5740    14.9630 ha         1 8H1       0.157000
     58 H27         -9.8350    -2.5960    13.6980 ha         1 8H1       0.154000
     59 H28         -8.9490    -2.3920    11.4060 ha         1 8H1       0.129000
     60 O2           4.1750    -0.0020     0.1340 os         1 8H1      -0.239900
     61 N3           1.8900    -0.0020     8.4920 nv         1 8H1      -1.081500
     62 HN5         -7.0000     2.0410    10.2310 hn         1 8H1       0.458133
     63 H52         -6.9350     1.2470    11.6760 hn         1 8H1       0.458133
     64 HN5A        -5.6330     1.3250    10.7180 hn         1 8H1       0.458133
@<TRIPOS>BOND
     1     1     3 1   
     2     2    13 ar  
     3     2    14 ar  
     4     3     4 1   
     5     4     6 ar  
     6     4    19 ar  
     7     5    16 ar  
     8     5    17 ar  
     9    60    19 1   
    10    60    20 1   
    11     6     8 ar  
    12    61    14 1   
    13     7    23 1   
    14     7    26 1   
    15     8    10 ar  
    16     8    17 ar  
    17     9    24 ar  
    18     9    25 ar  
    19    10    12 ar  
    20    10    15 ar  
    21    11    27 1   
    22    12    13 ar  
    23    13    21 1   
    24    14    15 ar  
    25    15    16 ar  
    26    17    18 ar  
    27    18    19 ar  
    28    21    22 ar  
    29    21    25 ar  
    30    22    23 ar  
    31    23    24 ar  
    32    26    27 1   
    33    27    28 1   
    34    28    29 1   
    35    29    30 ar  
    36    29    34 ar  
    37    30    31 ar  
    38    31    32 ar  
    39    32    33 ar  
    40    33    34 ar  
    41     1    35 1   
    42     1    36 1   
    43     1    37 1   
    44     6    38 1   
    45    61    39 1   
    46    61    40 1   
    47    11    62 1   
    48    11    64 1   
    49    12    41 1   
    50    16    42 1   
    51    18    43 1   
    52    20    44 1   
    53    20    45 1   
    54    20    46 1   
    55    22    47 1   
    56    24    48 1   
    57    25    49 1   
    58    26    50 1   
    59    26    51 1   
    60    27    52 1   
    61    28    53 1   
    62    28    54 1   
    63    30    55 1   
    64    31    56 1   
    65    32    57 1   
    66    33    58 1   
    67    34    59 1   
    68    63    11 1   
@<TRIPOS>SUBSTRUCTURE
     1 8H1         1 TEMP              0 ****  ****    0 ROOT
