@<TRIPOS>MOLECULE
8H4
   17    18     1     0     0
SMALL
bcc


@<TRIPOS>ATOM
      1 N1           0.0000     0.0000     0.0000 nv         1 8H4      -0.555200
      2 N3           5.5120     0.0000     0.3130 na         1 8H4       0.406900
      3 C4           3.4740    -0.0000     1.2200 ca         1 8H4      -0.261900
      4 C5           2.0740    -0.0010     1.2170 ca         1 8H4      -0.028000
      5 C6           1.3990    -0.0000     0.0120 ca         1 8H4      -0.015400
      6 C7           4.4840    -0.0100     2.2750 cc         1 8H4       0.436800
      7 C1           2.1040     0.0000    -1.1910 ca         1 8H4      -0.067000
      8 C2           3.4690     0.0010    -1.2010 ca         1 8H4      -0.117000
      9 C3           4.1750     0.0000     0.0000 ca         1 8H4      -0.185200
     10 N2           5.6550    -0.0060     1.7040 nd         1 8H4      -0.636100
     11 H4          -0.5000     0.8670    -0.0250 hn         1 8H4       0.270300
     12 H5          -0.5010    -0.8660     0.0260 hn         1 8H4       0.270300
     13 H3           1.5310     0.1420     2.1430 ha         1 8H4       0.107000
     14 H6           4.2940    -0.0150     3.3410 h4         1 8H4       0.013800
     15 H1           1.5620    -0.0000    -2.1290 ha         1 8H4       0.106000
     16 H2           4.0040     0.0010    -2.1430 ha         1 8H4       0.103000
     17 H7           6.2640     0.0040    -0.3480 hn         1 8H4       0.152700
@<TRIPOS>BOND
     1     1     5 1   
     2     1    11 1   
     3     1    12 1   
     4     2     9 1   
     5     2    10 1   
     6     2    17 1   
     7     3     4 ar  
     8     3     6 1   
     9     3     9 ar  
    10     4     5 ar  
    11     4    13 1   
    12     5     7 ar  
    13     6    10 2   
    14     6    14 1   
    15     7     8 ar  
    16     7    15 1   
    17     8     9 ar  
    18     8    16 1   
@<TRIPOS>SUBSTRUCTURE
     1 8H4         1 TEMP              0 ****  ****    0 ROOT
