@<TRIPOS>MOLECULE
molecule
   17    18     1     0     0
SMALL
bcc


@<TRIPOS>ATOM
      1 N1           0.0000     0.0000     0.0000 nv         1 8H4      -0.987200
      2 N3           5.5120     0.0000     0.3130 na         1 8H4      -0.057100
      3 C4           3.4740    -0.0000     1.2200 ca         1 8H4      -0.249900
      4 C5           2.0740    -0.0010     1.2170 ca         1 8H4      -0.073000
      5 C6           1.3990    -0.0000     0.0120 ca         1 8H4       0.119600
      6 C7           4.4840    -0.0100     2.2750 cc         1 8H4       0.375800
      7 C1           2.1040     0.0000    -1.1910 ca         1 8H4      -0.096000
      8 C2           3.4690     0.0010    -1.2010 ca         1 8H4      -0.156000
      9 C3           4.1750     0.0000     0.0000 ca         1 8H4      -0.024200
     10 N2           5.6550    -0.0060     1.7040 nd         1 8H4      -0.501100
     11 H4          -0.5000     0.8670    -0.0250 hn         1 8H4       0.425300
     12 H5          -0.5010    -0.8660     0.0260 hn         1 8H4       0.425300
     13 H3           1.5310     0.1420     2.1430 ha         1 8H4       0.138000
     14 H6           4.2940    -0.0150     3.3410 h4         1 8H4       0.061800
     15 H1           1.5620    -0.0000    -2.1290 ha         1 8H4       0.138000
     16 H2           4.0040     0.0010    -2.1430 ha         1 8H4       0.129000
     17 H7           6.2640     0.0040    -0.3480 hn         1 8H4       0.330700
@<TRIPOS>BOND
     1     6    10 2
     2     6     3 1
     3     4     3 ar
     4     4     5 ar
     5    10     2 1
     6     3     9 ar
     7     1     5 1
     8     5     7 ar
     9     2     9 1
    10     9     8 ar
    11     7     8 ar
    12     1    11 1
    13     1    12 1
    14     2    17 1
    15     4    13 1
    16     6    14 1
    17     7    15 1
    18     8    16 1
@<TRIPOS>SUBSTRUCTURE
     1 8H4         1 TEMP              0 ****  ****    0 ROOT
