@<TRIPOS>MOLECULE
8H6
   56    55     1     0     0
SMALL
bcc


@<TRIPOS>ATOM
      1 O1           0.0000     0.0000     0.0000 oh         1 8H6      -0.599800
      2 O17          4.4470     0.9600    -0.4800 o          1 8H6      -0.614100
      3 C5           3.9720     1.1580     0.6170 c          1 8H6       0.543100
      4 C4           3.4700    -0.0010     1.4400 c3         1 8H6       0.133100
      5 C3           1.9400     0.0000     1.4410 c3         1 8H6      -0.079000
      6 C15          1.4310     1.2500     2.1630 c3         1 8H6       0.006400
      7 C2           1.4290     0.0000     0.0000 c3         1 8H6       0.221400
      8 C14          1.4300    -1.2490     2.1630 c3         1 8H6       0.006400
      9 O16          3.9450    -1.2250     0.8790 oh         1 8H6      -0.550800
     10 C7           4.4780     3.5270     0.3500 c3         1 8H6       0.066000
     11 C8           4.2500     4.8320     1.1150 c3         1 8H6      -0.111400
     12 C9           4.8520     5.9780     0.3410 c          1 8H6       0.576100
     13 O18          5.4080     5.7700    -0.7160 o          1 8H6      -0.631100
     14 N10          4.7720     7.2330     0.8260 ns         1 8H6      -0.205900
     15 C11          5.3580     8.3460     0.0750 c3         1 8H6       0.069000
     16 C12          5.1310     9.6520     0.8390 c3         1 8H6       0.063700
     17 S13          5.8540    11.0280    -0.0890 ss         1 8H6      -0.310700
     18 C19          5.4690    12.3270     0.9580 c          1 8H6       0.628700
     19 O24          4.8640    12.1180     1.9890 o          1 8H6      -0.519100
     20 C20          5.8810    13.7320     0.5980 c3         1 8H6      -0.218700
     21 C26          7.4030    13.8000     0.4690 c3         1 8H6       0.017900
     22 C21          5.4250    14.6800     1.6760 c          1 8H6       0.593100
     23 O25          5.3360    14.2980     2.8190 o          1 8H6      -0.509100
     24 C22          5.0800    16.1050     1.3300 c3         1 8H6      -0.115400
     25 C23          4.6490    16.8490     2.5960 c3         1 8H6       0.015900
     26 H1          -0.3140     0.0050    -0.8890 ho         1 8H6       0.392000
     27 H2           3.8320     0.0950     2.4570 h1         1 8H6       0.008700
     28 H3           1.3020     2.0530     1.4480 hc         1 8H6       0.010533
     29 H4           0.4810     1.0320     2.6360 hc         1 8H6       0.010533
     30 H5           2.1490     1.5490     2.9170 hc         1 8H6       0.010533
     31 H6           1.7890     0.8840    -0.5110 h1         1 8H6       0.006700
     32 H7           1.7890    -0.8850    -0.5110 h1         1 8H6       0.006700
     33 H8           1.6280    -2.1240     1.5560 hc         1 8H6       0.010533
     34 H9           1.9370    -1.3480     3.1150 hc         1 8H6       0.010533
     35 H10          0.3630    -1.1590     2.3300 hc         1 8H6       0.010533
     36 H11          4.7190    -1.5030     1.3400 ho         1 8H6       0.390000
     37 H12          3.4500     2.5820     1.9830 hn         1 8H6       0.183500
     38 H13          4.0080     3.5920    -0.6240 h1         1 8H6       0.042700
     39 H14          5.5410     3.3600     0.2280 h1         1 8H6       0.042700
     40 H15          3.1870     4.9980     1.2370 hc         1 8H6       0.028200
     41 H16          4.7200     4.7670     2.0890 hc         1 8H6       0.028200
     42 H17          4.3470     7.3990     1.7170 hn         1 8H6       0.176500
     43 H18          4.8870     8.4110    -0.8990 h1         1 8H6       0.039200
     44 H19          6.4210     8.1790    -0.0480 h1         1 8H6       0.039200
     45 H20          5.6010     9.5870     1.8130 h1         1 8H6       0.052200
     46 H21          4.0680     9.8190     0.9620 h1         1 8H6       0.052200
     47 H22          5.4260    14.0110    -0.3440 hc         1 8H6       0.061700
     48 H23          7.7950    14.5140     1.1830 hc         1 8H6       0.017700
     49 H24          7.6680    14.1110    -0.5340 hc         1 8H6       0.017700
     50 H25          7.8270    12.8220     0.6680 hc         1 8H6       0.017700
     51 H26          4.2690    16.1160     0.6110 hc         1 8H6       0.031700
     52 H27          5.9480    16.5930     0.9020 hc         1 8H6       0.031700
     53 H28          4.3890    17.8700     2.3440 hc         1 8H6       0.009367
     54 H29          5.4640    16.8500     3.3090 hc         1 8H6       0.009367
     55 H30          3.7890    16.3540     3.0310 hc         1 8H6       0.009367
     56 N6           3.8920     2.4130     1.1020 ns         1 8H6      -0.232900
@<TRIPOS>BOND
     1     1     7 1   
     2     1    26 1   
     3     2     3 2   
     4     3     4 1   
     5     3    56 1   
     6     4     5 1   
     7     4     9 1   
     8     4    27 1   
     9     5     6 1   
    10     5     7 1   
    11     5     8 1   
    12     6    28 1   
    13     6    29 1   
    14     6    30 1   
    15     7    31 1   
    16     7    32 1   
    17     8    33 1   
    18     8    34 1   
    19     8    35 1   
    20     9    36 1   
    21    10    11 1   
    22    10    38 1   
    23    10    39 1   
    24    10    56 1   
    25    11    12 1   
    26    11    40 1   
    27    11    41 1   
    28    12    13 2   
    29    12    14 1   
    30    14    15 1   
    31    14    42 1   
    32    15    16 1   
    33    15    43 1   
    34    15    44 1   
    35    16    17 1   
    36    16    45 1   
    37    16    46 1   
    38    17    18 1   
    39    18    19 2   
    40    18    20 1   
    41    20    21 1   
    42    20    22 1   
    43    20    47 1   
    44    21    48 1   
    45    21    49 1   
    46    21    50 1   
    47    22    23 2   
    48    22    24 1   
    49    24    25 1   
    50    24    51 1   
    51    24    52 1   
    52    25    53 1   
    53    25    54 1   
    54    25    55 1   
    55    37    56 1   
@<TRIPOS>SUBSTRUCTURE
     1 8H6         1 TEMP              0 ****  ****    0 ROOT
