@<TRIPOS>MOLECULE
8H8
   14    14     1     0     0
SMALL
bcc


@<TRIPOS>ATOM
      1 FAG          0.0000     0.0000     0.0000 f          1 8H8      -0.115900
      2 CAF          1.3500     0.0000     0.0000 ca         1 8H8       0.157900
      3 CAI          2.0420     0.0000     1.1950 ca         1 8H8      -0.179000
      4 CAH          3.4310    -0.0000     1.1950 ca         1 8H8       0.173100
      5 OAJ          4.1070    -0.0010     2.3730 oh         1 8H8      -0.496100
      6 CAE          4.1300     0.0020    -0.0060 ca         1 8H8      -0.153000
      7 CAA          3.4500     0.0030    -1.2030 ca         1 8H8      -0.026000
      8 CAB          2.0530    -0.0040    -1.2110 ca         1 8H8      -0.017000
      9 CAC          1.3410    -0.0040    -2.4540 cg         1 8H8       0.228800
     10 NAD          0.7940     0.0030    -3.4490 n1         1 8H8      -0.362800
     11 H1           1.5020     0.0200     2.1330 ha         1 8H8       0.137000
     12 H2           4.2360    -0.8900     2.6600 ho         1 8H8       0.412000
     13 H3           5.2130     0.0020    -0.0020 ha         1 8H8       0.124000
     14 H4           3.9980     0.0040    -2.1370 ha         1 8H8       0.118000
@<TRIPOS>BOND
     1     1     2 1   
     2     2     3 ar  
     3     2     8 ar  
     4     3     4 ar  
     5     3    11 1   
     6     4     5 1   
     7     4     6 ar  
     8     5    12 1   
     9     6     7 ar  
    10     6    13 1   
    11     7     8 ar  
    12     7    14 1   
    13     8     9 1   
    14     9    10 3   
@<TRIPOS>SUBSTRUCTURE
     1 8H8         1 TEMP              0 ****  ****    0 ROOT
