@<TRIPOS>MOLECULE
molecule
   14    14     1     0     0
SMALL
bcc


@<TRIPOS>ATOM
      1 FAG          0.0000     0.0000     0.0000 f          1 8H8      -0.121900
      2 CAF          1.3500     0.0000     0.0000 ca         1 8H8       0.185900
      3 CAI          2.0420     0.0000     1.1950 ca         1 8H8      -0.204000
      4 CAH          3.4310    -0.0000     1.1950 ca         1 8H8       0.156100
      5 OAJ          4.1070    -0.0010     2.3730 oh         1 8H8      -0.516100
      6 CAE          4.1300     0.0020    -0.0060 ca         1 8H8      -0.174000
      7 CAA          3.4500     0.0030    -1.2030 ca         1 8H8      -0.053000
      8 CAB          2.0530    -0.0040    -1.2110 ca         1 8H8      -0.066000
      9 CAC          1.3410    -0.0040    -2.4540 cg         1 8H8       0.238800
     10 NAD          0.7940     0.0030    -3.4490 n1         1 8H8      -0.345800
     11 H1           1.5020     0.0200     2.1330 ha         1 8H8       0.164000
     12 H2           4.2360    -0.8900     2.6600 ho         1 8H8       0.430000
     13 H3           5.2130     0.0020    -0.0020 ha         1 8H8       0.153000
     14 H4           3.9980     0.0040    -2.1370 ha         1 8H8       0.153000
@<TRIPOS>BOND
     1    10     9 3   
     2     9     8 1   
     3     8     7 ar  
     4     8     2 ar  
     5     7     6 ar  
     6     1     2 1   
     7     2     3 ar  
     8     6     4 ar  
     9     3     4 ar  
    10     4     5 1   
    11     3    11 1   
    12     5    12 1   
    13     6    13 1   
    14     7    14 1   
@<TRIPOS>SUBSTRUCTURE
     1 8H8         1 TEMP              0 ****  ****    0 ROOT
