@<TRIPOS>MOLECULE
molecule
   20    21     1     0     0
SMALL
bcc


@<TRIPOS>ATOM
      1 O01          0.0000     0.0000     0.0000 o          1 8HC      -0.813800
      2 C02          1.2140     0.0000     0.0000 c          1 8HC       0.776100
      3 O03          1.8870     0.0000     1.1680 o          1 8HC      -0.813800
      4 C04          1.9560    -0.0040    -1.2810 ca         1 8HC       0.426800
      5 N05          3.2760    -0.0020    -1.2630 nb         1 8HC      -0.624000
      6 C06          3.9840    -0.0050    -2.3900 ca         1 8HC       0.391600
      7 C07          3.3190    -0.0110    -3.6440 ca         1 8HC      -0.148300
      8 C08          4.0730    -0.0150    -4.8280 ca         1 8HC      -0.123000
      9 C09          5.4350    -0.0150    -4.7620 ca         1 8HC      -0.142000
     10 C10          6.0940    -0.0100    -3.5370 ca         1 8HC      -0.187000
     11 C11          5.3960    -0.0050    -2.3630 ca         1 8HC       0.079800
     12 O12          6.0550    -0.0000    -1.1760 oh         1 8HC      -0.500100
     13 C13          1.9110    -0.0110    -3.6750 ca         1 8HC      -0.148000
     14 C14          1.2390    -0.0140    -2.4890 ca         1 8HC      -0.204300
     15 H081         3.5760    -0.0190    -5.7900 ha         1 8HC       0.117000
     16 H091         6.0130    -0.0190    -5.6780 ha         1 8HC       0.111000
     17 H101         7.1770    -0.0100    -3.5130 ha         1 8HC       0.122000
     18 H121         6.3500     0.8750    -0.9840 ho         1 8HC       0.414000
     19 H131         1.2330    -0.0120    -4.5200 ha         1 8HC       0.121000
     20 H141         0.1620    -0.0180    -2.6050 ha         1 8HC       0.146000
@<TRIPOS>BOND
     1    13    14 ar  
     2    13     7 ar  
     3    14     4 ar  
     4     8     7 ar  
     5     8     9 ar  
     6     7     6 ar  
     7     1     2 1   
     8     4     2 1   
     9     4     5 ar  
    10     9    10 ar  
    11     2     3 1   
    12     6     5 ar  
    13     6    11 ar  
    14    10    11 ar  
    15    11    12 1   
    16     8    15 1   
    17     9    16 1   
    18    10    17 1   
    19    12    18 1   
    20    13    19 1   
    21    14    20 1   
@<TRIPOS>SUBSTRUCTURE
     1 8HC         1 TEMP              0 ****  ****    0 ROOT
