@<TRIPOS>MOLECULE
8HC
   20    21     1     0     0
SMALL
bcc


@<TRIPOS>ATOM
      1 O01         0.6960    1.2450    0.3450 o         1 8HC     -0.801800
      2 C02         1.2060    0.1280    0.0820 c         1 8HC      0.825100
      3 O03         1.0770   -0.9360    0.7370 o         1 8HC     -0.801800
      4 C04         2.0340    0.0380   -1.2270 ca        1 8HC      0.403800
      5 N05         3.3380    0.2570   -1.2300 nb        1 8HC     -0.685000
      6 C06         4.0170    0.1600   -2.4320 ca        1 8HC      0.344600
      7 C07         3.3670   -0.1640   -3.6590 ca        1 8HC     -0.132300
      8 C08         4.1100   -0.2490   -4.8610 ca        1 8HC     -0.151000
      9 C09         5.4650   -0.0220   -4.8620 ca        1 8HC     -0.121000
     10 C10         6.1410    0.3000   -3.6690 ca        1 8HC     -0.197000
     11 C11         5.4390    0.3910   -2.4770 ca        1 8HC      0.091800
     12 O12         6.1730    0.7100   -1.3590 oh        1 8HC     -0.519100
     13 C13         1.9590   -0.3920   -3.6150 ca        1 8HC     -0.128000
     14 C14         1.2980   -0.2950   -2.4230 ca        1 8HC     -0.203300
     15 H081        3.5790   -0.5010   -5.7910 ha        1 8HC      0.117000
     16 H091        6.0430   -0.0880   -5.7940 ha        1 8HC      0.113000
     17 H101        7.2240    0.4800   -3.6770 ha        1 8HC      0.132000
     18 H121        5.5770    0.7430   -0.5940 ho        1 8HC      0.453000
     19 H131        1.4370   -0.6430   -4.5490 ha        1 8HC      0.116000
     20 H141        0.2160   -0.4600   -2.3310 ha        1 8HC      0.147000
@<TRIPOS>BOND
     1    1    2 1   
     2    2    3 1   
     3    2    4 1   
     4    4    5 ar  
     5    4   14 ar  
     6    5    6 ar  
     7    6    7 ar  
     8    6   11 ar  
     9    7    8 ar  
    10    7   13 ar  
    11    8    9 ar  
    12    8   15 1   
    13    9   10 ar  
    14    9   16 1   
    15   10   11 ar  
    16   10   17 1   
    17   11   12 1   
    18   12   18 1   
    19   13   14 ar  
    20   13   19 1   
    21   14   20 1   
@<TRIPOS>SUBSTRUCTURE
     1 8HC         1 TEMP              0 ****  ****    0 ROOT
