@<TRIPOS>MOLECULE
molecule
   29    30     1     0     0
SMALL
bcc


@<TRIPOS>ATOM
      1 C1           0.0000     0.0000     0.0000 cp         1 8HE       0.052000
      2 C2           1.3940     0.0000     0.0000 ca         1 8HE      -0.150000
      3 C3           2.0810     0.0000     1.1970 ca         1 8HE      -0.008000
      4 C5          -2.1400     0.0050    -1.2780 ca         1 8HE      -0.117000
      5 C6          -2.8320     0.0160    -2.4680 ca         1 8HE      -0.081000
      6 C7          -2.1360     0.0280    -3.6800 ca         1 8HE       0.060000
      7 C8          -0.7380     0.0290    -3.6820 ca         1 8HE      -0.081000
      8 C9          -0.0480     0.0170    -2.4920 ca         1 8HE      -0.117000
      9 C10          1.3900    -0.0010     2.3950 ca         1 8HE      -0.329500
     10 C11          0.0060    -0.0020     2.4010 ca         1 8HE      -0.008000
     11 C12         -0.6920    -0.0010     1.2110 ca         1 8HE      -0.150000
     12 S1           2.2750    -0.0010     3.9190 sy         1 8HE       1.241200
     13 O1           1.3950    -0.5460     4.8920 o          1 8HE      -0.519300
     14 O2           3.5560    -0.5450     3.6380 o          1 8HE      -0.519300
     15 N3           2.5200     1.5810     4.3440 nz         1 8HE      -0.806500
     16 C4          -0.7440     0.0050    -1.2820 cp         1 8HE      -0.106000
     17 N7          -3.4330     0.0310    -5.8970 n1         1 8HE      -0.308800
     18 H1           1.7950     0.1770    -0.9910 ha         1 8HE       0.171500
     19 H2           3.1630     0.0440     1.2460 ha         1 8HE       0.158500
     20 H3          -2.3850     0.3130    -0.2680 ha         1 8HE       0.142000
     21 H4          -3.8530    -0.0040    -2.1080 ha         1 8HE       0.166000
     22 H5          -0.1260    -0.1390    -4.5600 ha         1 8HE       0.166000
     23 H6           1.0080     0.2450    -2.4110 ha         1 8HE       0.142000
     24 H7          -0.7160     0.2610     3.1650 ha         1 8HE       0.158500
     25 H8          -1.7460     0.0270     0.9630 ha         1 8HE       0.171500
     26 H9           2.7830     2.2270     3.6260 hn         1 8HE       0.486133
     27 H10          2.0200     2.0010     5.1030 hn         1 8HE       0.486133
     28 H33          3.4090     1.5560     4.8020 hn         1 8HE       0.486133
     29 C81         -2.8550     0.0400    -4.9190 cg         1 8HE       0.214800
@<TRIPOS>BOND
     1    17    29 3   
     2    29     6 1   
     3     5     6 ar  
     4     5     4 ar  
     5     6     7 ar  
     6     4    16 ar  
     7     7     8 ar  
     8    16     8 ar  
     9    16     1 1   
    10     1     2 ar  
    11     1    11 ar  
    12     2     3 ar  
    13    11    10 ar  
    14     3     9 ar  
    15    10     9 ar  
    16     9    12 1   
    17    15    12 1   
    18    13    12 2   
    19    12    14 2   
    20     2    18 1   
    21     3    19 1   
    22     4    20 1   
    23     5    21 1   
    24     7    22 1   
    25     8    23 1   
    26    10    24 1   
    27    11    25 1   
    28    15    26 1   
    29    15    27 1   
    30    28    15 1   
@<TRIPOS>SUBSTRUCTURE
     1 8HE         1 TEMP              0 ****  ****    0 ROOT
