@<TRIPOS>MOLECULE
molecule
   68    71     1     0     0
SMALL
bcc


@<TRIPOS>ATOM
      1 CAA          0.0000     0.0000     0.0000 ca         1 8HF      -0.107000
      2 CAB          1.3590     0.0000     0.0000 ca         1 8HF      -0.090000
      3 CAC          2.0770     0.0000     1.2090 ca         1 8HF      -0.118600
      4 CAD          1.4120     0.0010     2.4230 ca         1 8HF      -0.151300
      5 CAE          0.0080     0.0010     2.4420 ca         1 8HF       0.427600
      6 CAF         -0.7030     0.0000     1.2160 ca         1 8HF      -0.148300
      7 CAH         -1.9790     0.0030     3.6310 cp         1 8HF       0.512800
      8 CAI         -2.7400     0.0010     2.4520 ca         1 8HF      -0.235300
      9 CAJ         -2.1140     0.0000     1.2390 ca         1 8HF       0.072400
     10 CAK         -2.6730     0.0040     4.9420 cp         1 8HF      -0.158500
     11 CAL         -1.9360     0.0040     6.1250 ca         1 8HF      -0.099000
     12 CAM         -2.5870     0.0050     7.3410 ca         1 8HF      -0.120000
     13 CAN         -3.9690     0.0070     7.3880 ca         1 8HF      -0.056300
     14 CAO         -4.7070     0.0070     6.2180 ca         1 8HF      -0.120000
     15 CAP         -4.0660     0.0110     4.9950 ca         1 8HF      -0.099000
     16 CAQ         -4.6750     0.0070     8.7190 c3         1 8HF       0.194100
     17 CAR         -6.0170     0.7310     8.5850 c3         1 8HF      -0.118100
     18 CAS         -4.9160    -1.4340     9.1710 c3         1 8HF      -0.118100
     19 CAV          3.5550    -0.0010     1.1820 c          1 8HF       0.673700
     20 CAY          5.7080     0.9780     1.8150 c3         1 8HF       0.095000
     21 CAZ          6.1160     2.4010     1.4150 c3         1 8HF       0.111700
     22 CBB          3.9470     3.2890     2.3680 c3         1 8HF       0.089000
     23 CBC          3.5400     1.8660     2.7670 c3         1 8HF       0.069000
     24 CBD          6.1000     4.2670     3.0000 c          1 8HF       0.756100
     25 CBE          5.7280     2.6560    -0.0430 c3         1 8HF      -0.109100
     26 CBH          6.2470     6.0910     4.5330 c3         1 8HF       0.166400
     27 CBI          5.3320     6.9840     5.3740 c3         1 8HF      -0.089400
     28 CBJ          6.1800     7.9920     6.1520 c3         1 8HF      -0.090100
     29 NAG         -0.6610     0.0020     3.6000 nb         1 8HF      -0.683000
     30 NAW          4.2430     0.9140     1.8960 n          1 8HF      -0.486800
     31 NBA          5.4120     3.3520     2.2870 n          1 8HF      -0.480800
     32 OAT         -3.8670     0.6810     9.6870 oh         1 8HF      -0.601800
     33 OAX          4.1520    -0.8270     0.5190 o          1 8HF      -0.595100
     34 OBF          5.4430     5.1330     3.7950 os         1 8HF      -0.445900
     35 OBG          7.3110     4.3100     2.9250 o          1 8HF      -0.611000
     36 H1          -0.5410    -0.0000    -0.9380 ha         1 8HF       0.151000
     37 H2           1.8950    -0.0010    -0.9410 ha         1 8HF       0.151000
     38 H3           1.9700     0.0010     3.3510 ha         1 8HF       0.159000
     39 H4          -3.8200    -0.0700     2.5030 ha         1 8HF       0.156000
     40 Cl1         -3.0290     0.0000    -0.2350 cl         1 8HF      -0.085400
     41 H6          -0.8530     0.0030     6.0890 ha         1 8HF       0.143500
     42 H7          -2.0150     0.0060     8.2610 ha         1 8HF       0.144000
     43 H8          -5.7890     0.0100     6.2610 ha         1 8HF       0.144000
     44 H9          -4.6450     0.0110     4.0790 ha         1 8HF       0.143500
     45 H10         -6.7060     0.1130     8.0210 hc         1 8HF       0.045033
     46 H11         -5.8700     1.6710     8.0680 hc         1 8HF       0.045033
     47 H12         -6.4260     0.9200     9.5700 hc         1 8HF       0.045033
     48 H13         -5.3770    -1.9930     8.3650 hc         1 8HF       0.045033
     49 H14         -3.9700    -1.8930     9.4330 hc         1 8HF       0.045033
     50 H15         -5.5710    -1.4380    10.0330 hc         1 8HF       0.045033
     51 H16          6.0610     0.2760     1.0690 h1         1 8HF       0.074200
     52 H17          6.1350     0.7360     2.7810 h1         1 8HF       0.074200
     53 H18          7.1860     2.5200     1.5390 h1         1 8HF       0.101700
     54 H19          3.5190     3.5310     1.4020 h1         1 8HF       0.065700
     55 H20          3.5940     3.9900     3.1140 h1         1 8HF       0.065700
     56 H21          3.8160     1.6850     3.7990 h1         1 8HF       0.067200
     57 H22          2.4700     1.7470     2.6450 h1         1 8HF       0.067200
     58 H23          5.3760     3.6750    -0.1490 hc         1 8HF       0.047033
     59 H24          4.9410     1.9700    -0.3320 hc         1 8HF       0.047033
     60 H25          6.5920     2.5040    -0.6780 hc         1 8HF       0.047033
     61 H26          6.9330     5.5620     5.1830 h1         1 8HF       0.051700
     62 H27          6.8090     6.7030     3.8370 h1         1 8HF       0.051700
     63 H28          4.6470     7.5140     4.7230 hc         1 8HF       0.051700
     64 H29          4.7700     6.3720     6.0690 hc         1 8HF       0.051700
     65 H30          5.5330     8.6260     6.7470 hc         1 8HF       0.039033
     66 H31          6.8650     7.4620     6.8040 hc         1 8HF       0.039033
     67 H32          6.7440     8.6030     5.4570 hc         1 8HF       0.039033
     68 H33         -4.3220     0.7080    10.5120 ho         1 8HF       0.406000
@<TRIPOS>BOND
     1     9     8 ar
     2     9     6 ar
     3     1     6 ar
     4     1     2 ar
     5     8     7 ar
     6     6     5 ar
     7     2     3 ar
     8    25    21 1
     9    15    14 ar
    10    15    10 ar
    11     7    10 1
    12     7    29 ar
    13     5    29 ar
    14     5     4 ar
    15     3     4 ar
    16     3    19 1
    17    14    13 ar
    18    10    11 ar
    19    19    33 2
    20    19    30 1
    21    27    28 1
    22    27    26 1
    23    21    31 1
    24    21    20 1
    25    18    16 1
    26    35    24 2
    27    13    16 1
    28    13    12 ar
    29    11    12 ar
    30    31    24 1
    31    31    22 1
    32    24    34 1
    33    20    30 1
    34    22    23 1
    35    30    23 1
    36    16    32 1
    37    16    17 1
    38    26    34 1
    39     1    36 1
    40     2    37 1
    41     4    38 1
    42     8    39 1
    43     9    40 1
    44    11    41 1
    45    12    42 1
    46    14    43 1
    47    15    44 1
    48    17    45 1
    49    17    46 1
    50    17    47 1
    51    18    48 1
    52    18    49 1
    53    18    50 1
    54    20    51 1
    55    20    52 1
    56    21    53 1
    57    22    54 1
    58    22    55 1
    59    23    56 1
    60    23    57 1
    61    25    58 1
    62    25    59 1
    63    25    60 1
    64    26    61 1
    65    26    62 1
    66    27    63 1
    67    27    64 1
    68    28    65 1
    69    28    66 1
    70    28    67 1
    71    32    68 1
@<TRIPOS>SUBSTRUCTURE
     1 8HF         1 TEMP              0 ****  ****    0 ROOT
