@<TRIPOS>MOLECULE
molecule
   34    36     1     0     0
SMALL
bcc


@<TRIPOS>ATOM
      1 O6           0.0000     0.0000     0.0000 o          1 8HG      -0.557500
      2 C6           1.2200     0.0000     0.0000 c          1 8HG       0.714700
      3 N1           1.9110     0.0000     1.1620 ns         1 8HG      -0.449400
      4 C2           3.2730    -0.0010     1.1480 cc         1 8HG       0.434800
      5 N2           3.9530    -0.0010     2.3390 nz         1 8HG      -0.723600
      6 N3           3.9520    -0.0030     0.0220 nd         1 8HG      -0.552300
      7 C4           3.3270    -0.0040    -1.1620 cd         1 8HG       0.209200
      8 C5           1.9390    -0.0080    -1.2050 cc         1 8HG      -0.087600
      9 N7           1.5720    -0.0160    -2.5530 ns         1 8HG      -0.386100
     10 C8           2.7020    -0.0220    -3.2880 c          1 8HG       0.798500
     11 O20          2.7480    -0.0290    -4.5040 o          1 8HG      -0.575500
     12 N9           3.7700    -0.0060    -2.4690 n          1 8HG      -0.317000
     13 C1'          5.1720    -0.0100    -2.8950 c3         1 8HG       0.321500
     14 O4'          5.4190     1.0780    -3.8130 os         1 8HG      -0.384600
     15 C2'          5.4860    -1.2880    -3.7030 c3         1 8HG      -0.149400
     16 C3'          6.4590    -0.8070    -4.8030 c3         1 8HG       0.120100
     17 O3'          7.7180    -1.4720    -4.6840 oh         1 8HG      -0.596800
     18 C4'          6.6170     0.7050    -4.5290 c3         1 8HG       0.137100
     19 C5'          6.7120     1.4780    -5.8470 c3         1 8HG       0.150400
     20 O5'          6.9000     2.8670    -5.5710 oh         1 8HG      -0.601800
     21 HN1          1.4210     0.0010     2.0340 hn         1 8HG       0.355500
     22 HN21         3.7170     0.8220     2.8570 hn         1 8HG       0.478800
     23 HN22         3.7010    -0.8120     2.8670 hn         1 8HG       0.478800
     24 H1'          5.8320     0.0650    -2.0390 h2         1 8HG       0.082700
     25 H2'1         5.9640    -2.0260    -3.0710 hc         1 8HG       0.079200
     26 H2'2         4.5810    -1.6860    -4.1470 hc         1 8HG       0.079200
     27 H3'          6.0290    -0.9690    -5.7840 h1         1 8HG       0.066700
     28 H1           7.7840    -2.1400    -5.3460 ho         1 8HG       0.418000
     29 H4'          7.4910     0.8850    -3.9160 h1         1 8HG       0.081700
     30 H5'1         5.7980     1.3420    -6.4120 h1         1 8HG       0.041700
     31 H5'2         7.5510     1.1070    -6.4230 h1         1 8HG       0.041700
     32 H5'          7.0300     3.3330    -6.3800 ho         1 8HG       0.414000
     33 H13          0.6370    -0.0170    -2.9090 hn         1 8HG       0.396500
     34 H23          4.9380    -0.0340     2.1610 hn         1 8HG       0.478800
@<TRIPOS>BOND
     1     1     2 2   
     2     2     3 1   
     3     2     8 1   
     4     3     4 1   
     5     3    21 1   
     6     4     5 1   
     7     4     6 2   
     8     5    22 1   
     9     5    23 1   
    10     6     7 1   
    11     7     8 2   
    12     7    12 1   
    13     8     9 1   
    14     9    10 1   
    15    10    11 2   
    16    10    12 1   
    17    12    13 1   
    18    13    14 1   
    19    13    15 1   
    20    13    24 1   
    21    14    18 1   
    22    15    16 1   
    23    15    25 1   
    24    15    26 1   
    25    16    17 1   
    26    16    18 1   
    27    16    27 1   
    28    17    28 1   
    29    18    19 1   
    30    18    29 1   
    31    19    20 1   
    32    19    30 1   
    33    19    31 1   
    34    20    32 1   
    35     9    33 1   
    36    34     5 1   
@<TRIPOS>SUBSTRUCTURE
     1 8HG         1 TEMP              0 ****  ****    0 ROOT
