@<TRIPOS>MOLECULE
molecule
   31    33     1     0     0
SMALL
bcc


@<TRIPOS>ATOM
      1 C1           0.0000     0.0000     0.0000 c3         1 8HH       0.233800
      2 C2          -1.8440     0.0010     1.6330 cc         1 8HH       0.337300
      3 C3          -2.7400     0.0010     0.6010 cd         1 8HH      -0.425300
      4 C7          -3.8300     0.0120     4.5380 cc         1 8HH      -0.385600
      5 C8          -5.1020    -0.0060    -0.2210 ca         1 8HH      -0.278800
      6 C9          -6.4740    -0.0120     0.0480 ca         1 8HH      -0.047000
      7 C10         -7.3530    -0.0120    -1.0210 ca         1 8HH      -0.264300
      8 C11         -6.8490    -0.0060    -2.3100 ca         1 8HH       0.430200
      9 C12         -4.6750     0.0000    -1.5480 ca         1 8HH       0.440200
     10 C            1.5300     0.0000     0.0000 c3         1 8HH      -0.110100
     11 N           -0.4890     0.0000     1.3810 nu         1 8HH      -0.798600
     12 N2          -2.3120     0.0070     2.9220 na         1 8HH      -0.002800
     13 N3          -1.6630     0.0120     4.1620 nd         1 8HH      -0.598100
     14 C6          -2.5680     0.0160     5.1140 cc         1 8HH       0.424500
     15 C5          -3.6630     0.0060     3.1580 cd         1 8HH       0.446500
     16 N1          -4.5360     0.0010     2.1420 nd         1 8HH      -0.729000
     17 C4          -4.1170     0.0010     0.8870 cc         1 8HH       0.571800
     18 N4          -5.5490    -0.0010    -2.5330 nb         1 8HH      -0.696000
     19 H1          -0.3610    -0.8850    -0.5110 h1         1 8HH       0.048200
     20 H2          -0.3610     0.8840    -0.5110 h1         1 8HH       0.048200
     21 H3          -2.3970    -0.1630    -0.4130 ha         1 8HH       0.157000
     22 H4          -4.7750     0.0140     5.0680 ha         1 8HH       0.170000
     23 H5          -6.8400    -0.0170     1.0680 ha         1 8HH       0.166000
     24 H6          -8.4220    -0.0170    -0.8510 ha         1 8HH       0.142000
     25 H7          -7.5340    -0.0060    -3.1490 h4         1 8HH       0.024100
     26 H8          -3.6150     0.0050    -1.7710 h4         1 8HH       0.024100
     27 H9           1.8910     0.8860     0.5080 hc         1 8HH       0.049367
     28 H10          1.8910    -0.8830     0.5130 hc         1 8HH       0.049367
     29 H11          1.8910    -0.0030    -1.0210 hc         1 8HH       0.049367
     30 H12          0.1610     0.0140     2.1420 hn         1 8HH       0.464800
     31 H13         -2.3620     0.0200     6.1770 h4         1 8HH       0.059800
@<TRIPOS>BOND
     1    14     4 1
     2    14    13 2
     3     4    15 2
     4    13    12 1
     5    15    12 1
     6    15    16 1
     7    12     2 1
     8    16    17 2
     9     2    11 1
    10     2     3 2
    11    17     3 1
    12    17     5 1
    13    11     1 1
    14     9     5 ar
    15     9    18 ar
    16     5     6 ar
    17    10     1 1
    18    18     8 ar
    19     6     7 ar
    20     8     7 ar
    21     1    19 1
    22     1    20 1
    23     3    21 1
    24     4    22 1
    25     6    23 1
    26     7    24 1
    27     8    25 1
    28     9    26 1
    29    10    27 1
    30    10    28 1
    31    10    29 1
    32    11    30 1
    33    14    31 1
@<TRIPOS>SUBSTRUCTURE
     1 8HH         1 TEMP              0 ****  ****    0 ROOT
