@<TRIPOS>MOLECULE
8HH
   31    33     1     0     0
SMALL
bcc


@<TRIPOS>ATOM
      1 C1           0.0000     0.0000     0.0000 c3         1 8HH       0.159800
      2 C2          -1.8440     0.0010     1.6330 cc         1 8HH       0.012300
      3 C3          -2.7400     0.0010     0.6010 cd         1 8HH      -0.400300
      4 C7          -3.8300     0.0120     4.5380 cc         1 8HH      -0.379600
      5 C8          -5.1020    -0.0060    -0.2210 ca         1 8HH      -0.278800
      6 C9          -6.4740    -0.0120     0.0480 ca         1 8HH      -0.027000
      7 C10         -7.3530    -0.0120    -1.0210 ca         1 8HH      -0.230300
      8 C11         -6.8490    -0.0060    -2.3100 ca         1 8HH       0.413200
      9 C12         -4.6750     0.0000    -1.5480 ca         1 8HH       0.416200
     10 C            1.5300     0.0000     0.0000 c3         1 8HH      -0.003100
     11 N           -0.4890     0.0000     1.3810 nu         1 8HH      -0.378600
     12 N2          -2.3120     0.0070     2.9220 na         1 8HH       0.481200
     13 N3          -1.6630     0.0120     4.1620 nd         1 8HH      -0.763100
     14 C6          -2.5680     0.0160     5.1140 cc         1 8HH       0.496500
     15 C5          -3.6630     0.0060     3.1580 cd         1 8HH       0.242500
     16 N1          -4.5360     0.0010     2.1420 nc         1 8HH      -0.604000
     17 C4          -4.1170     0.0010     0.8870 cd         1 8HH       0.519800
     18 N4          -5.5490    -0.0010    -2.5330 nb         1 8HH      -0.589000
     19 H1          -0.3610    -0.8850    -0.5110 h1         1 8HH       0.020700
     20 H2          -0.3610     0.8840    -0.5110 h1         1 8HH       0.020700
     21 H3          -2.3970    -0.1630    -0.4130 ha         1 8HH       0.151000
     22 H4          -4.7750     0.0140     5.0680 ha         1 8HH       0.147000
     23 H5          -6.8400    -0.0170     1.0680 ha         1 8HH       0.132000
     24 H6          -8.4220    -0.0170    -0.8510 ha         1 8HH       0.115000
     25 H7          -7.5340    -0.0060    -3.1490 h4         1 8HH      -0.021900
     26 H8          -3.6150     0.0050    -1.7710 h4         1 8HH      -0.017900
     27 H9           1.8910     0.8860     0.5080 hc         1 8HH       0.013367
     28 H10          1.8910    -0.8830     0.5130 hc         1 8HH       0.013367
     29 H11          1.8910    -0.0030    -1.0210 hc         1 8HH       0.013367
     30 H12          0.1610     0.0140     2.1420 hn         1 8HH       0.316800
     31 H13         -2.3620     0.0200     6.1770 h4         1 8HH       0.009800
@<TRIPOS>BOND
     1     1    10 1   
     2     1    11 1   
     3     1    19 1   
     4     1    20 1   
     5     2     3 2   
     6     2    11 1   
     7     2    12 1   
     8     3    17 1   
     9     3    21 1   
    10     4    14 1   
    11     4    15 2   
    12     4    22 1   
    13     5     6 ar  
    14     5     9 ar  
    15     5    17 1   
    16     6     7 ar  
    17     6    23 1   
    18     7     8 ar  
    19     7    24 1   
    20     8    18 ar  
    21     8    25 1   
    22     9    18 ar  
    23     9    26 1   
    24    10    27 1   
    25    10    28 1   
    26    10    29 1   
    27    11    30 1   
    28    12    13 1   
    29    12    15 1   
    30    13    14 2   
    31    14    31 1   
    32    15    16 1   
    33    16    17 2   
@<TRIPOS>SUBSTRUCTURE
     1 8HH         1 TEMP              0 ****  ****    0 ROOT
