@<TRIPOS>MOLECULE
molecule
   81    84     1     0     0
SMALL
bcc


@<TRIPOS>ATOM
      1 N1           0.0000     0.0000     0.0000 ns         1 8HI      -0.458100
      2 C4          -5.4790    -2.7010    -1.0780 ca         1 8HI      -0.092500
      3 C5          -6.5090    -3.5440    -1.4400 ca         1 8HI      -0.166500
      4 C6          -4.1800    -1.4680     0.6580 cc         1 8HI      -0.118000
      5 C7          -4.3080    -0.2280     1.2090 cd         1 8HI      -0.046600
      6 C8          -2.1250    -0.6200     1.0150 cd         1 8HI      -0.219900
      7 C10         -2.1790    -2.9660    -0.0230 ca         1 8HI      -0.009000
      8 C13         -1.0280    -5.2650    -1.0500 ca         1 8HI      -0.130000
      9 C15         -2.3370    -4.1840     0.6390 ca         1 8HI      -0.113000
     10 C17          1.3990     0.0000     0.0000 ca         1 8HI       0.158600
     11 C20          4.1650    -0.0030    -0.0010 ca         1 8HI      -0.362500
     12 C21          3.4760    -0.0010     1.1980 ca         1 8HI      -0.012000
     13 C22          2.0950     0.0000     1.2020 ca         1 8HI      -0.176000
     14 C28         -7.3880     1.9730     0.6370 c3         1 8HI       0.183100
     15 O5         -11.9680     4.9300    -2.3520 o          1 8HI      -0.800800
     16 O6         -11.7620     4.2260    -0.2680 o          1 8HI      -0.800800
     17 C31         -9.8560     3.8870    -1.6110 c3         1 8HI      -0.180400
     18 C30         -9.2860     3.2800    -0.3280 c3         1 8HI       0.242100
     19 O4          -9.1720     4.2970     0.6700 oh         1 8HI      -0.606800
     20 C29         -7.9040     2.6880    -0.6130 c3         1 8HI      -0.263400
     21 O3          -7.1820     2.9270     1.6810 oh         1 8HI      -0.590800
     22 C27         -6.0650     1.2760     0.3140 c3         1 8HI      -0.089400
     23 C3          -5.2900    -2.3710     0.2630 ca         1 8HI      -0.021000
     24 C2          -6.1460    -2.8910     1.2310 ca         1 8HI      -0.092500
     25 C1          -7.1780    -3.7290     0.8600 ca         1 8HI      -0.166500
     26 C           -7.3550    -4.0630    -0.4730 ca         1 8HI       0.135900
     27 F           -8.3630    -4.8880    -0.8330 f          1 8HI      -0.138900
     28 N           -3.0740     0.2890     1.4250 na         1 8HI      -0.007100
     29 C23         -2.7940     1.6030     2.0050 c3         1 8HI       0.033000
     30 C25         -2.0990     2.4830     0.9650 c3         1 8HI      -0.111600
     31 C9          -2.7940    -1.7360     0.5260 cc         1 8HI      -0.047000
     32 C11         -1.4340    -2.9100    -1.2020 ca         1 8HI      -0.113000
     33 C12         -0.8630    -4.0590    -1.7070 ca         1 8HI      -0.131000
     34 C14         -1.7610    -5.3270     0.1220 ca         1 8HI      -0.131000
     35 C16         -0.6740    -0.4430     1.0790 c          1 8HI       0.730700
     36 O           -0.0750    -0.6960     2.1100 o          1 8HI      -0.576100
     37 C18          2.0950    -0.0070    -1.2020 ca         1 8HI      -0.176000
     38 C19          3.4760    -0.0090    -1.1990 ca         1 8HI      -0.012000
     39 S            5.9270    -0.0040    -0.0000 sy         1 8HI       1.172200
     40 O1           6.3290     0.5390    -1.2510 o          1 8HI      -0.548300
     41 O2           6.3300     0.5410     1.2490 o          1 8HI      -0.548300
     42 N2           6.4170    -1.5860     0.0000 nz         1 8HI      -0.794500
     43 HN1         -0.5000     0.3230    -0.8040 hn         1 8HI       0.350500
     44 H4          -4.8600    -2.2430    -1.8410 ha         1 8HI       0.139500
     45 H5          -6.6580    -3.8000    -2.4820 ha         1 8HI       0.147000
     46 H13         -0.5780    -6.1640    -1.4520 ha         1 8HI       0.127000
     47 H15         -2.9110    -4.2330     1.5560 ha         1 8HI       0.132500
     48 H21          4.0200     0.0010     2.1350 ha         1 8HI       0.152500
     49 H22          1.5550     0.0010     2.1410 ha         1 8HI       0.187000
     50 H24         -2.1880     2.1400     3.9960 hc         1 8HI       0.051200
     51 H24A        -1.9660     0.4290     3.6030 hc         1 8HI       0.051200
     52 H24B        -0.8590     1.6400     2.9400 hc         1 8HI       0.051200
     53 H26         -5.4750     1.1170     2.3750 hc         1 8HI       0.063700
     54 H26A        -6.3630    -0.2840     1.7620 hc         1 8HI       0.063700
     55 H28         -8.1140     1.2370     0.9580 h1         1 8HI       0.010700
     56 H31         -9.2430     4.7260    -1.9180 hc         1 8HI       0.055200
     57 H31A        -9.8610     3.1380    -2.3940 hc         1 8HI       0.055200
     58 H30         -9.6050     2.3450     0.1170 h1         1 8HI      -0.001300
     59 HO4         -9.9590     4.3190     1.1880 ho         1 8HI       0.418000
     60 H29         -7.6010     2.3710    -1.6030 hc         1 8HI       0.083700
     61 H29A        -8.7440     2.0360    -0.4060 hc         1 8HI       0.083700
     62 HO3         -7.7910     2.7610     2.3820 ho         1 8HI       0.395000
     63 H27         -6.2010     0.6180    -0.5350 hc         1 8HI       0.054700
     64 H27A        -5.3130     2.0190     0.0780 hc         1 8HI       0.054700
     65 H2          -5.9720    -2.6780     2.2790 ha         1 8HI       0.139500
     66 H1          -7.8480    -4.1280     1.6110 ha         1 8HI       0.147000
     67 H23         -3.7240     2.0700     2.3080 h1         1 8HI       0.102700
     68 H25         -1.0250     2.4030     1.0830 hc         1 8HI       0.051200
     69 H25A        -2.3780     2.1560    -0.0300 hc         1 8HI       0.051200
     70 H25B        -2.4020     3.5140     1.1040 hc         1 8HI       0.051200
     71 H11         -1.3050    -1.9670    -1.7190 ha         1 8HI       0.132500
     72 H12         -0.2860    -4.0180    -2.6230 ha         1 8HI       0.128500
     73 H14         -1.8850    -6.2740     0.6330 ha         1 8HI       0.128500
     74 H18          1.5540    -0.0110    -2.1410 ha         1 8HI       0.187000
     75 H19          4.0190    -0.0120    -2.1360 ha         1 8HI       0.152500
     76 HN2          6.0620    -2.0450     0.8160 hn         1 8HI       0.480133
     77 HN2A         7.4170    -1.6260     0.0040 hn         1 8HI       0.480133
     78 C24         -1.8850     1.4410     3.2250 c3         1 8HI      -0.111600
     79 H231         6.0670    -2.0440    -0.8190 hn         1 8HI       0.480133
     80 C26         -5.6110     0.4590     1.5250 c3         1 8HI      -0.023100
     81 C32        -11.2660     4.3600    -1.3610 c          1 8HI       0.895600
@<TRIPOS>BOND
     1    35     1 1   
     2     1    10 1   
     3     1    43 1   
     4     3     2 ar  
     5     2    23 ar  
     6     2    44 1   
     7    26     3 ar  
     8     3    45 1   
     9    23     4 1   
    10     4     5 2   
    11     4    31 1   
    12    80     5 1   
    13     5    28 1   
    14    31     6 2   
    15    28     6 1   
    16     6    35 1   
    17     9     7 ar  
    18     7    31 1   
    19     7    32 ar  
    20    34     8 ar  
    21     8    33 ar  
    22     8    46 1   
    23    34     9 ar  
    24     9    47 1   
    25    10    37 ar  
    26    10    13 ar  
    27    38    11 ar  
    28    12    11 ar  
    29    11    39 1   
    30    13    12 ar  
    31    12    48 1   
    32    13    49 1   
    33    29    78 1   
    34    78    50 1   
    35    78    51 1   
    36    78    52 1   
    37    80    22 1   
    38    80    53 1   
    39    80    54 1   
    40    20    14 1   
    41    14    21 1   
    42    14    22 1   
    43    14    55 1   
    44    81    15 1   
    45    16    81 1   
    46    81    17 1   
    47    17    18 1   
    48    17    56 1   
    49    17    57 1   
    50    19    18 1   
    51    18    20 1   
    52    18    58 1   
    53    19    59 1   
    54    20    60 1   
    55    20    61 1   
    56    21    62 1   
    57    22    63 1   
    58    22    64 1   
    59    24    23 ar  
    60    25    24 ar  
    61    24    65 1   
    62    26    25 ar  
    63    25    66 1   
    64    27    26 1   
    65    28    29 1   
    66    29    30 1   
    67    29    67 1   
    68    30    68 1   
    69    30    69 1   
    70    30    70 1   
    71    33    32 ar  
    72    32    71 1   
    73    33    72 1   
    74    34    73 1   
    75    35    36 2   
    76    37    38 ar  
    77    37    74 1   
    78    38    75 1   
    79    39    42 1   
    80    39    41 2   
    81    39    40 2   
    82    42    76 1   
    83    42    77 1   
    84    79    42 1   
@<TRIPOS>SUBSTRUCTURE
     1 8HI         1 TEMP              0 ****  ****    0 ROOT
