@<TRIPOS>MOLECULE
8HI
   80    82     1     0     0
SMALL
bcc


@<TRIPOS>ATOM
      1 N1         -0.1470   -0.6410   -0.2650 n         1 8HI     -0.307000
      2 C4         -5.2560   -3.9150   -1.2460 ca        1 8HI     -0.077000
      3 C5         -6.2400   -4.8700   -1.4820 ca        1 8HI     -0.176500
      4 C6         -4.4310   -1.9050   -0.0430 c2        1 8HI      0.004000
      5 C7         -4.6790   -0.5010    0.1280 c2        1 8HI     -0.082000
      6 C8         -2.4590   -0.8630    0.4520 c2        1 8HI     -0.106000
      7 C10        -2.3440   -3.4250    0.0410 c3        1 8HI     -0.019000
      8 C13         0.5900   -4.5210   -0.3160 c2        1 8HI     -0.012000
      9 C15        -1.3410   -3.6450    1.1530 c2        1 8HI     -0.211000
     10 C17         1.2200   -0.4850   -0.1940 c2        1 8HI      0.177000
     11 C20         4.0480   -0.1250   -0.1110 c2        1 8HI     -0.962000
     12 C21         3.3420   -0.0600    1.0940 c1        1 8HI     -0.112000
     13 C22         1.9020   -0.2270    1.1200 c3        1 8HI     -0.184000
     14 C28        -7.1680    2.1450    0.4490 c3        1 8HI      0.070000
     15 O5        -11.9100    5.8240    0.0880 o         1 8HI     -0.576500
     16 O6        -10.6040    5.8370    1.9010 o         1 8HI     -0.576500
     17 C31        -9.6550    5.0330   -0.1630 c3        1 8HI     -0.265000
     18 C30        -8.8150    4.0610    0.6470 c3        1 8HI      0.061000
     19 O4         -8.0940    4.7220    1.6800 oh        1 8HI     -0.407000
     20 C29        -7.7770    3.3630   -0.2340 c3        1 8HI     -0.205000
     21 O3         -6.2880    2.4990    1.5080 oh        1 8HI     -0.380000
     22 C27        -6.3200    1.3510   -0.5610 c3        1 8HI     -0.186000
     23 C3         -5.4580   -2.8870   -0.3150 ca        1 8HI     -0.041000
     24 C2         -6.6890   -2.8090    0.3610 ca        1 8HI     -0.077000
     25 C1         -7.6800   -3.7570    0.1410 ca        1 8HI     -0.176500
     26 C          -7.4560   -4.7980   -0.7800 ca        1 8HI      0.095000
     27 F          -8.4160   -5.7280   -0.9980 f         1 8HI     -0.110000
     28 N          -3.4330    0.1190    0.4190 na        1 8HI     -0.062000
     29 C23        -3.3120    1.4620    0.9810 c3        1 8HI     -0.013000
     30 C25        -3.1920    1.4710    2.5060 c3        1 8HI     -0.229500
     31 C9         -3.0300   -2.1220    0.1210 c2        1 8HI     -0.141000
     32 C11        -1.6570   -3.6540   -1.3490 c3        1 8HI     -0.086000
     33 C12        -0.3430   -4.1970   -1.1700 c1        1 8HI     -0.221000
     34 C14        -0.1680   -4.1500    0.8470 c1        1 8HI     -0.120000
     35 C16        -1.0400   -0.6260    0.8230 c2        1 8HI      0.387000
     36 O          -0.6530   -0.4330    1.9830 o         1 8HI     -0.299000
     37 C18         1.9940   -0.5600   -1.3540 c2        1 8HI     -0.330000
     38 C19         3.3870   -0.3830   -1.3010 c2        1 8HI      0.177000
     39 S           5.6950    0.1500    0.0180 s6        1 8HI      2.903000
     40 O1          6.3300   -0.4350   -1.1130 o         1 8HI     -0.963500
     41 O2          5.9350    1.5290    0.1610 o         1 8HI     -0.963500
     42 N2          6.1240   -0.6610    1.3270 n3        1 8HI     -0.943000
     43 HN1        -0.5430   -0.8240   -1.1660 hn        1 8HI      0.249000
     44 H4         -4.3150   -3.9620   -1.8140 ha        1 8HI      0.153500
     45 H5         -6.0790   -5.6740   -2.2130 ha        1 8HI      0.148000
     46 H13         1.5910   -4.9370   -0.3550 ha        1 8HI      0.188000
     47 H15        -3.1340   -4.2290    0.1600 hc        1 8HI      0.122000
     48 H21         1.6600   -1.0700    1.8400 hc        1 8HI      0.187500
     49 H22         1.4570    0.6980    1.6050 hc        1 8HI      0.187500
     50 H24        -2.2060    2.2550   -0.7440 hc        1 8HI      0.092167
     51 H24A       -2.2670    3.3260    0.7160 hc        1 8HI      0.092167
     52 H24B       -1.1760    1.8800    0.7090 hc        1 8HI      0.092167
     53 H26        -6.1230    0.2270    2.4000 ha        1 8HI      0.005000
     54 H26A       -6.7720    0.0660    2.2820 ha        1 8HI      0.005000
     55 H28        -7.9780    1.4820    0.8650 h1        1 8HI      0.097000
     56 H31        -9.0200    5.8880   -0.5030 hc        1 8HI      0.077000
     57 H31A      -10.0710    4.5190   -1.0640 hc        1 8HI      0.077000
     58 H30        -9.4890    3.2920    1.1220 h1        1 8HI      0.072000
     59 HO4        -8.7330    5.2960    2.1430 ho        1 8HI      0.270000
     60 H29        -6.9650    4.0910   -0.4900 hc        1 8HI      0.092000
     61 H29A       -8.2780    3.0400   -1.1820 hc        1 8HI      0.092000
     62 HO3        -6.6840    3.2490    1.9780 ho        1 8HI      0.252000
     63 H27        -5.4710    2.0010   -0.9100 hc        1 8HI      0.100000
     64 H27A       -6.9740    1.1390   -1.4590 hc        1 8HI      0.100000
     65 H2         -6.8690   -1.9630    1.0500 ha        1 8HI      0.153500
     66 H1         -8.6420   -3.6960    0.6720 ha        1 8HI      0.148000
     67 H23        -4.2870    1.9920    0.7270 h1        1 8HI      0.163000
     68 H25        -2.2890    0.9150    2.8520 hc        1 8HI      0.092167
     69 H25A       -4.1040    1.0190    2.9680 hc        1 8HI      0.092167
     70 H25B       -3.1180    2.5330    2.8440 hc        1 8HI      0.092167
     71 H11        -2.2870   -4.3630   -1.9520 hc        1 8HI      0.115500
     72 H12        -1.6060   -2.6870   -1.9170 hc        1 8HI      0.115500
     73 H14        -1.6690   -3.4020    2.1720 ha        1 8HI      0.188000
     74 H18         1.5320   -0.7600   -2.3330 ha        1 8HI      0.143000
     75 H19         3.9620   -0.4630   -2.2460 ha        1 8HI      0.155000
     76 HN2         5.6460   -0.5710    2.1900 hn        1 8HI      0.244500
     77 HN2A        6.8130   -1.3680    1.3260 hn        1 8HI      0.244500
     78 C26        -5.9490    0.0540   -0.0430 c1        1 8HI     -0.055000
     79 C24        -2.1670    2.2680    0.3720 c3        1 8HI     -0.229500
     80 C32       -10.8150    5.6050    0.6700 c2        1 8HI      0.331000
@<TRIPOS>BOND
     1    1   10 1   
     2    1   35 1   
     3    1   43 1   
     4    2    3 1   
     5    2   23 1   
     6    2   44 1   
     7    3   26 1   
     8    3   45 1   
     9    4    5 1   
    10    4   23 1   
    11    4   31 1   
    12    5   28 1   
    13    5   78 1   
    14    6   28 1   
    15    6   31 1   
    16    6   35 1   
    17    7    9 1   
    18    7   31 1   
    19    7   32 1   
    20    7   47 1   
    21    8   33 1   
    22    8   34 1   
    23    8   46 1   
    24    9   34 1   
    25    9   73 1   
    26   10   13 1   
    27   10   37 1   
    28   11   12 1   
    29   11   38 1   
    30   11   39 1   
    31   12   13 1   
    32   13   48 1   
    33   13   49 1   
    34   14   20 1   
    35   14   21 1   
    36   14   22 1   
    37   14   55 1   
    38   15   80 1   
    39   16   80 1   
    40   17   18 1   
    41   17   56 1   
    42   17   57 1   
    43   17   80 1   
    44   18   19 1   
    45   18   20 1   
    46   18   58 1   
    47   19   59 1   
    48   20   60 1   
    49   20   61 1   
    50   21   62 1   
    51   22   63 1   
    52   22   64 1   
    53   22   78 1   
    54   23   24 1   
    55   24   25 1   
    56   24   65 1   
    57   25   26 1   
    58   25   66 1   
    59   26   27 1   
    60   28   29 1   
    61   29   30 1   
    62   29   67 1   
    63   29   79 1   
    64   30   68 1   
    65   30   69 1   
    66   30   70 1   
    67   32   33 1   
    68   32   71 1   
    69   32   72 1   
    70   35   36 1   
    71   37   38 1   
    72   37   74 1   
    73   38   75 1   
    74   39   40 1   
    75   39   41 1   
    76   39   42 1   
    77   42   76 1   
    78   42   77 1   
    79   50   79 1   
    80   51   79 1   
    81   52   79 1   
    82   53   54 1   
@<TRIPOS>SUBSTRUCTURE
     1 8HI         1 TEMP              0 ****  ****    0 ROOT
