@<TRIPOS>MOLECULE
8HJ
   21    22     1     0     0
SMALL
bcc


@<TRIPOS>ATOM
      1 N1           0.0000     0.0000     0.0000 ns         1 8HJ      -0.022100
      2 C4           3.4720     0.0000     1.2080 ca         1 8HJ      -0.046000
      3 C5           4.1680    -0.0020     0.0140 ca         1 8HJ      -0.159000
      4 C6           3.4810    -0.0020    -1.1920 ca         1 8HJ       0.155100
      5 C7           2.0950    -0.0020    -1.1990 ca         1 8HJ      -0.181000
      6 C8           1.3980     0.0000     0.0000 ca         1 8HJ      -0.055400
      7 C1           0.0430     0.8120     2.3420 c3         1 8HJ      -0.094400
      8 C2           1.3320     0.0020     2.5060 c3         1 8HJ       0.042900
      9 C3           2.0920     0.0000     1.2040 ca         1 8HJ      -0.149300
     10 C9          -0.6820     0.3750     1.0980 c          1 8HJ       0.600500
     11 O1          -1.8940     0.3590     1.0840 o          1 8HJ      -0.668500
     12 O2           4.1670    -0.0030    -2.3650 oh         1 8HJ      -0.500100
     13 H8          -0.4970    -0.2820    -0.8220 hn         1 8HJ       0.181500
     14 H5           4.0110     0.0010     2.1480 ha         1 8HJ       0.108000
     15 H6           5.2520    -0.0020     0.0190 ha         1 8HJ       0.118000
     16 H7           1.5570    -0.0030    -2.1390 ha         1 8HJ       0.122000
     17 H2           0.3010     1.8590     2.2440 hc         1 8HJ       0.044200
     18 H1          -0.5950     0.6270     3.1980 hc         1 8HJ       0.044200
     19 H4           1.0720    -1.0190     2.7600 hc         1 8HJ       0.027700
     20 H3           1.9440     0.4700     3.2670 hc         1 8HJ       0.027700
     21 H9           4.2880     0.8840    -2.6590 ho         1 8HJ       0.405000
@<TRIPOS>BOND
     1     1     6 1   
     2     1    10 1   
     3     1    13 1   
     4     2     3 ar  
     5     2     9 ar  
     6     2    14 1   
     7     3     4 ar  
     8     3    15 1   
     9     4     5 ar  
    10     4    12 1   
    11     5     6 ar  
    12     5    16 1   
    13     6     9 ar  
    14     7     8 1   
    15     7    10 1   
    16     7    17 1   
    17     7    18 1   
    18     8     9 1   
    19     8    19 1   
    20     8    20 1   
    21    10    11 2   
    22    12    21 1   
@<TRIPOS>SUBSTRUCTURE
     1 8HJ         1 TEMP              0 ****  ****    0 ROOT
