@<TRIPOS>MOLECULE
molecule
   27    28     1     0     0
SMALL
bcc


@<TRIPOS>ATOM
      1 C2           0.0000     0.0000     0.0000 ca         1 8HK      -0.138000
      2 C10          0.0030    -0.0060     2.3940 ca         1 8HK      -0.353500
      3 C12          2.0840     0.0000     1.2100 ca         1 8HK      -0.138000
      4 O1          -0.0050    -0.5570     4.8920 o          1 8HK      -0.519800
      5 C4           2.1390     0.0010    -1.2830 cp         1 8HK      -0.225300
      6 C5           3.5320     0.0070    -1.2930 ca         1 8HK       0.460200
      7 C8           2.1950     0.0030    -3.6710 ca         1 8HK      -0.249300
      8 C11          1.3860    -0.0110     2.4010 ca         1 8HK      -0.019500
      9 C1           1.3930     0.0000     0.0000 cp         1 8HK       0.094000
     10 C7           3.5770     0.0140    -3.5960 ca         1 8HK       0.462200
     11 N3          -1.1240     1.5750     4.3450 nz         1 8HK      -0.806500
     12 C9           1.4540     0.0020    -2.5010 ca         1 8HK      -0.060000
     13 S1          -0.8820    -0.0070     3.9180 sy         1 8HK       1.222200
     14 C3          -0.6890    -0.0010     1.1960 ca         1 8HK      -0.019500
     15 O2          -2.1670    -0.5470     3.6360 o          1 8HK      -0.519800
     16 N6           4.1950     0.0130    -2.4310 nb         1 8HK      -0.676000
     17 H1          -0.5420     0.0020    -0.9380 ha         1 8HK       0.166000
     18 H2           3.1670    -0.0020     1.2170 ha         1 8HK       0.166000
     19 H3           4.0750     0.0060    -0.3550 h4         1 8HK       0.027100
     20 H4           1.6990     0.0040    -4.6340 ha         1 8HK       0.158000
     21 H5           1.9220    -0.0110     3.3420 ha         1 8HK       0.155500
     22 H6           4.1600     0.0170    -4.5090 h4         1 8HK       0.043100
     23 H7          -0.2390     2.0300     4.4520 hn         1 8HK       0.491133
     24 H8          -1.6260     1.6140     5.2100 hn         1 8HK       0.491133
     25 H9           0.3720    -0.0050    -2.5300 ha         1 8HK       0.142000
     26 H10         -1.7720     0.0010     1.1960 ha         1 8HK       0.155500
     27 H33         -1.6910     2.0240     3.6540 hn         1 8HK       0.491133
@<TRIPOS>BOND
     1    16     6 ar  
     2    16    10 ar  
     3     6     5 ar  
     4    10     7 ar  
     5     5    12 ar  
     6     5     9 1   
     7     7    12 ar  
     8     9     3 ar  
     9     9     1 ar  
    10     3     8 ar  
    11     1    14 ar  
    12     8     2 ar  
    13    14     2 ar  
    14     2    13 1   
    15    11    13 1   
    16    15    13 2   
    17    13     4 2   
    18     1    17 1   
    19     3    18 1   
    20     6    19 1   
    21     7    20 1   
    22     8    21 1   
    23    10    22 1   
    24    11    23 1   
    25    11    24 1   
    26    12    25 1   
    27    14    26 1   
    28    27    11 1   
@<TRIPOS>SUBSTRUCTURE
     1 8HK         1 TEMP              0 ****  ****    0 ROOT
