@<TRIPOS>MOLECULE
8HM
   60    65     1     0     0
SMALL
bcc


@<TRIPOS>ATOM
      1 N1           0.0000     0.0000     0.0000 n          1 8HM       0.118000
      2 C4           1.4190     0.0000     2.3480 cc         1 8HM       0.373000
      3 C6           1.3410     0.0000     0.0000 c          1 8HM       0.490300
      4 C8           3.5500    -0.0010     2.7210 cd         1 8HM       0.618900
      5 C13         -3.3790     0.0010     4.2220 c3         1 8HM       0.254100
      6 C15         -1.6540     0.4170     5.8710 c3         1 8HM       0.147800
      7 C20         -0.0190     2.0780    -2.4980 ca         1 8HM      -0.038500
      8 C21         -0.2390     3.3800    -2.9020 ca         1 8HM      -0.180000
      9 C22         -1.4000     4.0370    -2.5220 ca         1 8HM       0.165100
     10 C24         -2.1130     2.0820    -1.3330 ca         1 8HM      -0.038500
     11 C26         -0.6090     5.9280    -3.7260 c3         1 8HM       0.243700
     12 C28         -4.9510    -1.3370     6.3140 c3         1 8HM      -0.055700
     13 C23         -2.3370     3.3840    -1.7350 ca         1 8HM      -0.180000
     14 C3          -0.0600     0.0010     2.3880 cc         1 8HM      -0.205500
     15 C12         -0.9560     0.0010     3.5330 cc         1 8HM      -0.025300
     16 C19         -0.9550     1.4290    -1.7130 ca         1 8HM      -0.191300
     17 C11         -2.2530     0.0000     3.2060 cd         1 8HM      -0.011400
     18 C2          -0.7280    -0.0000     1.1830 cd         1 8HM       0.003500
     19 C16         -0.4790     0.0030     4.9800 c3         1 8HM       0.052900
     20 C29         -6.0800    -1.1590     7.3350 c3         1 8HM      -0.064900
     21 C33         -4.3670    -2.7450     6.4550 c3         1 8HM      -0.064900
     22 C30         -7.1330    -2.2480     7.1130 c3         1 8HM       0.214900
     23 C32         -5.4860    -3.7730     6.2680 c3         1 8HM       0.214900
     24 C18         -0.7160     0.0060    -1.2790 c3         1 8HM       0.089300
     25 N7           2.3430    -0.0010     3.2860 nd         1 8HM      -0.682000
     26 N9           3.4250     0.0000     1.4190 nc         1 8HM      -0.629800
     27 N5           2.0500     0.0000     1.1380 n          1 8HM       0.394500
     28 N14         -2.8320    -0.3930     5.5290 n3         1 8HM      -0.538600
     29 O17          1.9320    -0.0000    -1.0630 o          1 8HM      -0.662500
     30 O31         -6.5180    -3.5330     7.2270 os         1 8HM      -0.409600
     31 S10         -2.4620     0.0010     1.4650 ss         1 8HM      -0.222800
     32 H1           4.4910    -0.0020     3.2580 h5         1 8HM       0.027100
     33 H2          -3.8050     0.9950     4.2910 h1         1 8HM       0.023200
     34 H3          -4.1410    -0.7070     3.9190 h1         1 8HM       0.023200
     35 H4          -1.8770     1.4650     5.7080 h1         1 8HM       0.014700
     36 H5          -1.3940     0.2550     6.9100 h1         1 8HM       0.014700
     37 H6           0.8880     1.5650    -2.7950 ha         1 8HM       0.121000
     38 H7           0.4950     3.8880    -3.5170 ha         1 8HM       0.122000
     39 H8          -2.8450     1.5710    -0.7180 ha         1 8HM       0.121000
     40 H9          -0.9050     6.9410    -3.9710 h1         1 8HM      -0.000633
     41 H10          0.3280     5.9470    -3.1820 h1         1 8HM      -0.000633
     42 H11         -0.4850     5.3580    -4.6390 h1         1 8HM      -0.000633
     43 H12         -5.3460    -1.2080     5.3130 hc         1 8HM       0.031700
     44 H13         -3.2450     3.8950    -1.4360 ha         1 8HM       0.122000
     45 H14          0.3330     0.7110     5.0950 hc         1 8HM       0.042200
     46 H15         -0.1460    -0.9910     5.2550 hc         1 8HM       0.042200
     47 H16         -5.6780    -1.2440     8.3370 hc         1 8HM       0.028200
     48 H17         -6.5360    -0.1850     7.2030 hc         1 8HM       0.028200
     49 H18         -3.9340    -2.8590     7.4420 hc         1 8HM       0.028200
     50 H19         -3.6060    -2.8980     5.7000 hc         1 8HM       0.028200
     51 H20         -7.9110    -2.1540     7.8600 h1         1 8HM       0.006200
     52 H21         -7.5590    -2.1400     6.1230 h1         1 8HM       0.006200
     53 H22         -5.8950    -3.6830     5.2690 h1         1 8HM       0.006200
     54 H23         -5.0870    -4.7700     6.4120 h1         1 8HM       0.006200
     55 H24         -1.6660    -0.5010    -1.1630 h1         1 8HM       0.051700
     56 H25         -0.1230    -0.5050    -2.0270 h1         1 8HM       0.051700
     57 H26         -3.4040    -0.4920     7.5430 h1         1 8HM       0.014700
     58 H27         -4.2910     0.6920     6.5730 h1         1 8HM       0.014700
     59 C27         -3.8570    -0.3010     6.5780 c3         1 8HM       0.155800
     60 O25         -1.6180     5.3190    -2.9180 os         1 8HM      -0.306900
@<TRIPOS>BOND
     1     1     3 1   
     2     1    18 1   
     3     1    24 1   
     4     2    14 1   
     5     2    25 2   
     6     2    27 1   
     7     3    27 1   
     8     3    29 2   
     9     4    25 1   
    10     4    26 2   
    11     4    32 1   
    12     5    17 1   
    13     5    28 1   
    14     5    33 1   
    15     5    34 1   
    16     6    19 1   
    17     6    28 1   
    18     6    35 1   
    19     6    36 1   
    20     7     8 ar  
    21     7    16 ar  
    22     7    37 1   
    23     8     9 ar  
    24     8    38 1   
    25     9    13 ar  
    26     9    60 1   
    27    10    13 ar  
    28    10    16 ar  
    29    10    39 1   
    30    11    40 1   
    31    11    41 1   
    32    11    42 1   
    33    11    60 1   
    34    12    20 1   
    35    12    21 1   
    36    12    43 1   
    37    12    59 1   
    38    13    44 1   
    39    14    15 1   
    40    14    18 2   
    41    15    17 2   
    42    15    19 1   
    43    16    24 1   
    44    17    31 1   
    45    18    31 1   
    46    19    45 1   
    47    19    46 1   
    48    20    22 1   
    49    20    47 1   
    50    20    48 1   
    51    21    23 1   
    52    21    49 1   
    53    21    50 1   
    54    22    30 1   
    55    22    51 1   
    56    22    52 1   
    57    23    30 1   
    58    23    53 1   
    59    23    54 1   
    60    24    55 1   
    61    24    56 1   
    62    26    27 1   
    63    28    59 1   
    64    57    59 1   
    65    58    59 1   
@<TRIPOS>SUBSTRUCTURE
     1 8HM         1 TEMP              0 ****  ****    0 ROOT
