@<TRIPOS>MOLECULE
8HN
   52    58     1     0     0
SMALL
bcc


@<TRIPOS>ATOM
      1 C1           0.0000     0.0000     0.0000 ca         1 8HN      -0.081000
      2 C2           1.3880     0.0000     0.0000 ca         1 8HN      -0.131000
      3 C3           2.0830     0.0000     1.2030 ca         1 8HN      -0.040000
      4 N6           2.0910     0.0010    -1.2110 nu         1 8HN       0.159000
      5 C7          -0.0920    -0.8010     5.7730 c2         1 8HN      -0.214000
      6 C8           0.6100    -0.6140     6.9720 c2         1 8HN       0.011000
      7 C9           1.4150     1.4140     6.2060 c2         1 8HN      -0.042000
      8 C10          1.8060     3.2080     4.8840 c2         1 8HN       0.013000
      9 C11          2.0990     2.6430     6.1410 c2         1 8HN      -0.180000
     10 C12          2.9330     3.2110     7.1570 c1         1 8HN      -0.038000
     11 C13         -0.3050    -2.7790     7.9490 c3         1 8HN      -0.077000
     12 C14         -0.5000    -3.1540     9.4390 c3         1 8HN      -0.119000
     13 C15          0.8920    -2.8070    10.0320 c3         1 8HN      -0.249000
     14 C16          1.3100    -1.5590     9.2250 c3         1 8HN       0.019000
     15 C19          3.5900     0.0000     1.1990 c3         1 8HN      -0.031000
     16 C20          4.0980    -0.8040     0.0020 c3         1 8HN      -0.602000
     17 C21          3.3850    -0.3670    -1.2490 c3         1 8HN       0.339000
     18 O2           3.9830    -0.3460    -2.3040 oh         1 8HN      -0.472000
     19 C4           1.3930    -0.0020     2.3980 ca         1 8HN      -0.124000
     20 C5           0.0050    -0.0010     2.3990 ca         1 8HN      -0.063000
     21 C           -0.6900     0.0000     1.1960 ca         1 8HN      -0.111000
     22 N           -0.6960    -0.0020     3.6100 nu         1 8HN       0.102000
     23 C6          -0.0160     0.1540     4.8000 c2         1 8HN      -0.108000
     24 N2           0.7470     1.2730     5.0220 na         1 8HN       0.316000
     25 N3           1.0130     2.3980     4.2340 n2         1 8HN      -0.326000
     26 N4           3.5790     3.6710     7.9700 n1         1 8HN      -0.070000
     27 N1           1.3360     0.4790     7.1530 n2         1 8HN      -0.051000
     28 N5           0.5420    -1.5730     7.9670 nh         1 8HN       0.111000
     29 O1           3.3980     0.0120    11.0260 o          1 8HN      -0.547500
     30 O            3.5770     0.6310     8.7820 o          1 8HN      -0.547500
     31 H1          -0.5760    -0.1570    -0.9040 ha         1 8HN       0.110000
     32 H2           1.9090     0.7390    -1.8620 hn         1 8HN       0.080000
     33 H3          -0.8250    -1.5740     5.9710 ha         1 8HN       0.146000
     34 H4           2.0790     4.2330     4.6660 h4         1 8HN       0.139000
     35 H5          -0.4870    -3.4780     7.1420 h1         1 8HN       0.032500
     36 H6          -1.3020    -2.3890     7.7770 h1         1 8HN       0.032500
     37 H7          -1.3850    -2.9090    10.0130 hc         1 8HN       0.057000
     38 H8          -0.3510    -4.2260     9.4820 hc         1 8HN       0.057000
     39 H9           1.5040    -3.6850    10.2000 hc         1 8HN       0.136500
     40 H10          0.6660    -1.8670    10.5210 hc         1 8HN       0.136500
     41 H11          1.0760    -0.6630     9.7880 h1         1 8HN       0.109000
     42 H12          4.0660    -0.6670     1.9070 hc         1 8HN       0.077500
     43 H13          3.7480     0.9590     1.6780 hc         1 8HN       0.077500
     44 H14          4.2660    -0.5410    -1.0350 DU         1 8HN       0.297000
     45 H15          5.0840    -1.1310     0.3080 hc         1 8HN       0.197000
     46 H16          1.8430     0.3680     3.3120 ha         1 8HN       0.135000
     47 H17         -1.6670     0.4510     1.3180 ha         1 8HN       0.111000
     48 H18         -1.0710     0.8900     3.8620 hn         1 8HN       0.071000
     49 H19          3.4000    -1.9600     8.0830 hc         1 8HN       0.069000
     50 H20          3.2030    -2.2780     9.6810 hc         1 8HN       0.069000
     51 C17          2.8080    -1.6140     8.9220 c3         1 8HN      -0.432000
     52 C18          3.3100    -0.0510     9.5270 c2         1 8HN       0.444000
@<TRIPOS>BOND
     1     1     2 1   
     2     1    21 1   
     3     1    31 1   
     4     2     3 1   
     5     2     4 1   
     6     3    15 1   
     7     3    19 1   
     8     4    17 1   
     9     4    32 1   
    10     5     6 1   
    11     5    23 1   
    12     5    33 1   
    13     6    27 1   
    14     6    28 1   
    15     7     9 1   
    16     7    24 1   
    17     7    27 1   
    18     8     9 1   
    19     8    25 1   
    20     8    34 1   
    21     9    10 1   
    22    10    26 1   
    23    11    12 1   
    24    11    28 1   
    25    11    35 1   
    26    11    36 1   
    27    12    13 1   
    28    12    37 1   
    29    12    38 1   
    30    13    14 1   
    31    13    39 1   
    32    13    40 1   
    33    14    28 1   
    34    14    41 1   
    35    14    51 1   
    36    15    16 1   
    37    15    42 1   
    38    15    43 1   
    39    16    17 1   
    40    16    44 1   
    41    16    45 1   
    42    17    18 1   
    43    17    44 1   
    44    18    44 1   
    45    19    20 1   
    46    19    46 1   
    47    20    21 1   
    48    20    22 1   
    49    21    47 1   
    50    22    23 1   
    51    22    48 1   
    52    23    24 1   
    53    24    25 1   
    54    29    52 1   
    55    30    52 1   
    56    49    51 1   
    57    50    51 1   
    58    51    52 1   
@<TRIPOS>SUBSTRUCTURE
     1 8HN         1 TEMP              0 ****  ****    0 ROOT
