@<TRIPOS>MOLECULE
molecule
   52    56     1     0     0
SMALL
bcc


@<TRIPOS>ATOM
      1 C1           0.0000     0.0000     0.0000 ca         1 8HN      -0.121000
      2 C2           1.3880     0.0000     0.0000 ca         1 8HN       0.003600
      3 C3           2.0830     0.0000     1.2030 ca         1 8HN      -0.059300
      4 N6           2.0910     0.0010    -1.2110 ns         1 8HN      -0.399100
      5 C7          -0.0920    -0.8010     5.7730 cc         1 8HN      -0.309300
      6 C8           0.6100    -0.6140     6.9720 cc         1 8HN       0.735200
      7 C9           1.4150     1.4140     6.2060 cd         1 8HN       0.518500
      8 C10          1.8060     3.2080     4.8840 cc         1 8HN       0.452500
      9 C11          2.0990     2.6430     6.1410 cc         1 8HN      -0.263300
     10 C12          2.9330     3.2110     7.1570 cg         1 8HN       0.257500
     11 C13         -0.3050    -2.7790     7.9490 c3         1 8HN       0.215800
     12 C14         -0.5000    -3.1540     9.4390 c3         1 8HN      -0.101400
     13 C15          0.8920    -2.8070    10.0320 c3         1 8HN      -0.196400
     14 C16          1.3100    -1.5590     9.2250 c3         1 8HN       0.297500
     15 C19          3.5900     0.0000     1.1990 c3         1 8HN      -0.020100
     16 C20          4.0980    -0.8040     0.0020 c3         1 8HN      -0.582400
     17 C21          3.3850    -0.3670    -1.2490 c          1 8HN       0.779500
     18 O2           3.9830    -0.3460    -2.3040 o          1 8HN      -0.709500
     19 C4           1.3930    -0.0020     2.3980 ca         1 8HN      -0.133000
     20 C5           0.0050    -0.0010     2.3990 ca         1 8HN       0.092600
     21 C           -0.6900     0.0000     1.1960 ca         1 8HN      -0.128000
     22 N           -0.6960    -0.0020     3.6100 nu         1 8HN      -0.527000
     23 C6          -0.0160     0.1540     4.8000 cd         1 8HN       0.190300
     24 N2           0.7470     1.2730     5.0220 na         1 8HN      -0.042800
     25 N3           1.0130     2.3980     4.2340 nd         1 8HN      -0.636100
     26 N4           3.5790     3.6710     7.9700 n1         1 8HN      -0.376800
     27 N1           1.3360     0.4790     7.1530 nd         1 8HN      -0.709000
     28 N5           0.5420    -1.5730     7.9670 nh         1 8HN      -0.771300
     29 O1           3.3980     0.0120    11.0260 o          1 8HN      -0.773800
     30 O            3.5770     0.6310     8.7820 o          1 8HN      -0.773800
     31 H1          -0.5760    -0.1570    -0.9040 ha         1 8HN       0.139000
     32 H2           1.9090     0.7390    -1.8620 hn         1 8HN       0.319500
     33 H3          -0.8250    -1.5740     5.9710 ha         1 8HN       0.169000
     34 H4           2.0790     4.2330     4.6660 h4         1 8HN       0.059800
     35 H5          -0.4870    -3.4780     7.1420 h1         1 8HN       0.019700
     36 H6          -1.3020    -2.3890     7.7770 h1         1 8HN       0.019700
     37 H7          -1.3850    -2.9090    10.0130 hc         1 8HN       0.046200
     38 H8          -0.3510    -4.2260     9.4820 hc         1 8HN       0.046200
     39 H9           1.5040    -3.6850    10.2000 hc         1 8HN       0.118700
     40 H10          0.6660    -1.8670    10.5210 hc         1 8HN       0.118700
     41 H11          1.0760    -0.6630     9.7880 h1         1 8HN       0.092700
     42 H12          4.0660    -0.6670     1.9070 hc         1 8HN       0.068200
     43 H13          3.7480     0.9590     1.6780 hc         1 8HN       0.068200
     44 H14          4.2660    -0.5410    -1.0350 hc         1 8HN       0.244200
     45 H15          5.0840    -1.1310     0.3080 hc         1 8HN       0.244200
     46 H16          1.8430     0.3680     3.3120 ha         1 8HN       0.165000
     47 H17         -1.6670     0.4510     1.3180 ha         1 8HN       0.138000
     48 H18         -1.0710     0.8900     3.8620 hn         1 8HN       0.385800
     49 H19          3.4000    -1.9600     8.0830 hc         1 8HN       0.037200
     50 H20          3.2030    -2.2780     9.6810 hc         1 8HN       0.037200
     51 C17          2.8080    -1.6140     8.9220 c3         1 8HN      -0.393400
     52 C18          3.3100    -0.0510     9.5270 c          1 8HN       0.945600
@<TRIPOS>BOND
     1    18    17 2
     2    17     4 1
     3    17    16 1
     4     4     2 1
     5     1     2 ar
     6     1    21 ar
     7     2     3 ar
     8    16    15 1
     9    29    52 1
    10    15     3 1
    11    21    20 ar
    12     3    19 ar
    13    13    14 1
    14    13    12 1
    15    52    30 1
    16    52    51 1
    17    20    19 ar
    18    20    22 1
    19    14    51 1
    20    14    28 1
    21    12    11 1
    22     5    23 2
    23     5     6 1
    24    22    23 1
    25    28     6 1
    26    28    11 1
    27    23    24 1
    28     6    27 2
    29    24     7 1
    30    24    25 1
    31    27     7 1
    32     7     9 2
    33    25     8 2
    34     9     8 1
    35     9    10 1
    36    10    26 3
    37     1    31 1
    38     4    32 1
    39     5    33 1
    40     8    34 1
    41    11    35 1
    42    11    36 1
    43    12    37 1
    44    12    38 1
    45    13    39 1
    46    13    40 1
    47    14    41 1
    48    15    42 1
    49    15    43 1
    50    16    44 1
    51    16    45 1
    52    19    46 1
    53    21    47 1
    54    22    48 1
    55    51    49 1
    56    51    50 1
@<TRIPOS>SUBSTRUCTURE
     1 8HN         1 TEMP              0 ****  ****    0 ROOT
