@<TRIPOS>MOLECULE
8HP
   40    44     1     0     0
SMALL
bcc


@<TRIPOS>ATOM
      1 C4           0.0000     0.0000     0.0000 ca         1 8HP      -0.071500
      2 C5           1.3820     0.0000     0.0000 ca         1 8HP      -0.144300
      3 C6           2.1360    -0.0000    -1.3050 c3         1 8HP       0.081300
      4 C8           3.5040     1.9980    -1.3320 c          1 8HP       0.491300
      5 C15          1.6690     3.3180    -2.9310 cc         1 8HP      -0.202500
      6 C17          0.6210     5.2640    -4.3320 c3         1 8HP       0.049900
      7 C20         -1.6230     3.2870    -4.8220 c3         1 8HP       0.083900
      8 C21         -0.3930     2.9850    -3.9870 cd         1 8HP       0.001600
      9 C24          2.0740     0.0000     1.1970 ca         1 8HP      -0.071500
     10 C3          -0.6920     0.0060     1.1970 ca         1 8HP      -0.101500
     11 C25          1.3840    -0.0000     2.3950 ca         1 8HP      -0.101500
     12 C12          4.5980     5.2530    -2.0280 cd         1 8HP       0.618900
     13 C16          0.6010     3.8500    -3.7660 cc         1 8HP      -0.035300
     14 C2           0.0010     0.0050     2.3950 ca         1 8HP      -0.023600
     15 C23          1.4430     2.0200    -2.5310 cd         1 8HP      -0.001500
     16 C14          2.9180     3.9670    -2.4740 cc         1 8HP       0.372000
     17 C18         -0.3880     5.3500    -5.4790 c3         1 8HP      -0.030400
     18 C19         -1.7370     4.8020    -5.0020 c3         1 8HP      -0.028400
     19 N13          3.4310     5.1630    -2.6650 nd         1 8HP      -0.680000
     20 N11          4.8540     4.1230    -1.4200 nc         1 8HP      -0.628800
     21 N10          3.7810     3.2600    -1.6870 n          1 8HP       0.394500
     22 N7           2.3790     1.3800    -1.7280 n          1 8HP       0.116000
     23 S22         -0.0870     1.4540    -3.1830 ss         1 8HP      -0.231800
     24 Cl1         -0.8670     0.0060     3.8990 cl         1 8HP      -0.022400
     25 H1          -0.5420     0.0000    -0.9380 ha         1 8HP       0.126500
     26 H2           1.5500    -0.5110    -2.0600 h1         1 8HP       0.053700
     27 H3           3.0820    -0.5110    -1.1750 h1         1 8HP       0.053700
     28 H4           1.6120     5.4910    -4.7030 hc         1 8HP       0.037700
     29 H5           0.3470     5.9680    -3.5550 hc         1 8HP       0.037700
     30 H6          -2.5060     2.9150    -4.3140 hc         1 8HP       0.023700
     31 H7          -1.5290     2.8130    -5.7910 hc         1 8HP       0.023700
     32 H8           3.1580    -0.0020     1.1960 ha         1 8HP       0.126500
     33 H9          -1.7750     0.0080     1.1970 ha         1 8HP       0.118500
     34 H10          1.9270    -0.0010     3.3330 ha         1 8HP       0.118500
     35 H11          5.2360     6.1280    -2.0150 h5         1 8HP       0.028100
     36 H12         -0.5040     6.3840    -5.7810 hc         1 8HP       0.019700
     37 H13         -0.0340     4.7610    -6.3160 hc         1 8HP       0.019700
     38 H14         -2.0000     5.2600    -4.0560 hc         1 8HP       0.020200
     39 H15         -2.4980     5.0220    -5.7410 hc         1 8HP       0.020200
     40 O9           4.2950     1.3920    -0.6350 o          1 8HP      -0.661500
@<TRIPOS>BOND
     1     1     2 ar  
     2     1    10 ar  
     3     1    25 1   
     4     2     3 1   
     5     2     9 ar  
     6     3    22 1   
     7     3    26 1   
     8     3    27 1   
     9     4    21 1   
    10     4    22 1   
    11     4    40 2   
    12     5    13 1   
    13     5    15 2   
    14     5    16 1   
    15     6    13 1   
    16     6    17 1   
    17     6    28 1   
    18     6    29 1   
    19     7     8 1   
    20     7    18 1   
    21     7    30 1   
    22     7    31 1   
    23     8    13 2   
    24     8    23 1   
    25     9    11 ar  
    26     9    32 1   
    27    10    14 ar  
    28    10    33 1   
    29    11    14 ar  
    30    11    34 1   
    31    12    19 1   
    32    12    20 2   
    33    12    35 1   
    34    14    24 1   
    35    15    22 1   
    36    15    23 1   
    37    16    19 2   
    38    16    21 1   
    39    17    18 1   
    40    17    36 1   
    41    17    37 1   
    42    18    38 1   
    43    18    39 1   
    44    20    21 1   
@<TRIPOS>SUBSTRUCTURE
     1 8HP         1 TEMP              0 ****  ****    0 ROOT
