@<TRIPOS>MOLECULE
molecule
   40    44     1     0     0
SMALL
bcc


@<TRIPOS>ATOM
      1 C4           0.0000     0.0000     0.0000 ca         1 8HP      -0.096000
      2 C5           1.3820     0.0000     0.0000 ca         1 8HP      -0.132300
      3 C6           2.1360    -0.0000    -1.3050 c3         1 8HP       0.159300
      4 C8           3.5040     1.9980    -1.3320 c          1 8HP       0.731300
      5 C15          1.6690     3.3180    -2.9310 cc         1 8HP      -0.226500
      6 C17          0.6210     5.2640    -4.3320 c3         1 8HP      -0.013100
      7 C20         -1.6230     3.2870    -4.8220 c3         1 8HP       0.004900
      8 C21         -0.3930     2.9850    -3.9870 cd         1 8HP      -0.047400
      9 C24          2.0740     0.0000     1.1970 ca         1 8HP      -0.096000
     10 C3          -0.6920     0.0060     1.1970 ca         1 8HP      -0.125000
     11 C25          1.3840    -0.0000     2.3950 ca         1 8HP      -0.125000
     12 C12          4.5980     5.2530    -2.0280 cd         1 8HP       0.583900
     13 C16          0.6010     3.8500    -3.7660 cc         1 8HP      -0.033300
     14 C2           0.0010     0.0050     2.3950 ca         1 8HP       0.041400
     15 C23          1.4430     2.0200    -2.5310 cd         1 8HP       0.120500
     16 C14          2.9180     3.9670    -2.4740 cc         1 8HP       0.553000
     17 C18         -0.3880     5.3500    -5.4790 c3         1 8HP      -0.084400
     18 C19         -1.7370     4.8020    -5.0020 c3         1 8HP      -0.078400
     19 N13          3.4310     5.1630    -2.6650 nd         1 8HP      -0.748000
     20 N11          4.8540     4.1230    -1.4200 nc         1 8HP      -0.487800
     21 N10          3.7810     3.2600    -1.6870 n          1 8HP      -0.041500
     22 N7           2.3790     1.3800    -1.7280 n          1 8HP      -0.321000
     23 S22         -0.0870     1.4540    -3.1830 ss         1 8HP      -0.113800
     24 Cl1         -0.8670     0.0060     3.8990 cl         1 8HP      -0.104400
     25 H1          -0.5420     0.0000    -0.9380 ha         1 8HP       0.148500
     26 H2           1.5500    -0.5110    -2.0600 h1         1 8HP       0.082200
     27 H3           3.0820    -0.5110    -1.1750 h1         1 8HP       0.082200
     28 H4           1.6120     5.4910    -4.7030 hc         1 8HP       0.070700
     29 H5           0.3470     5.9680    -3.5550 hc         1 8HP       0.070700
     30 H6          -2.5060     2.9150    -4.3140 hc         1 8HP       0.054700
     31 H7          -1.5290     2.8130    -5.7910 hc         1 8HP       0.054700
     32 H8           3.1580    -0.0020     1.1960 ha         1 8HP       0.148500
     33 H9          -1.7750     0.0080     1.1970 ha         1 8HP       0.149000
     34 H10          1.9270    -0.0010     3.3330 ha         1 8HP       0.149000
     35 H11          5.2360     6.1280    -2.0150 h5         1 8HP       0.087100
     36 H12         -0.5040     6.3840    -5.7810 hc         1 8HP       0.048700
     37 H13         -0.0340     4.7610    -6.3160 hc         1 8HP       0.048700
     38 H14         -2.0000     5.2600    -4.0560 hc         1 8HP       0.049700
     39 H15         -2.4980     5.0220    -5.7410 hc         1 8HP       0.049700
     40 O9           4.2950     1.3920    -0.6350 o          1 8HP      -0.615500
@<TRIPOS>BOND
     1    24    14 1
     2    11    14 ar
     3    11     9 ar
     4    14    10 ar
     5     9     2 ar
     6    10     1 ar
     7     2     1 ar
     8     2     3 1
     9     3    22 1
    10    40     4 2
    11    22     4 1
    12    22    15 1
    13     4    21 1
    14    23    15 1
    15    23     8 1
    16    15     5 2
    17    21    20 1
    18    21    16 1
    19    20    12 2
    20     5    16 1
    21     5    13 1
    22    16    19 2
    23     8    13 2
    24     8     7 1
    25    12    19 1
    26    13     6 1
    27     7    18 1
    28     6    17 1
    29    18    17 1
    30     1    25 1
    31     3    26 1
    32     3    27 1
    33     6    28 1
    34     6    29 1
    35     7    30 1
    36     7    31 1
    37     9    32 1
    38    10    33 1
    39    11    34 1
    40    12    35 1
    41    17    36 1
    42    17    37 1
    43    18    38 1
    44    18    39 1
@<TRIPOS>SUBSTRUCTURE
     1 8HP         1 TEMP              0 ****  ****    0 ROOT
