@<TRIPOS>MOLECULE
molecule
   20    21     1     0     0
SMALL
bcc


@<TRIPOS>ATOM
      1 OAB          0.0000     0.0000     0.0000 o          1 8HQ      -0.825300
      2 OAA          1.8880     0.0000     1.1680 o          1 8HQ      -0.825300
      3 OAC          2.0560    -0.2440    -6.1150 oh         1 8HQ      -0.511100
      4 CAD          3.3370     0.1180    -1.3080 ca         1 8HQ      -0.242300
      5 CAE          4.0020     0.1120    -2.5320 ca         1 8HQ       0.409200
      6 CAF         -0.0140    -0.3660    -4.9670 ca         1 8HQ      -0.168000
      7 CAG         -0.7430    -0.3690    -3.7820 ca         1 8HQ      -0.171000
      8 CAH          1.9540    -0.0020    -1.2780 ca         1 8HQ      -0.051600
      9 NAI          3.3580    -0.0020    -3.6680 nb         1 8HQ      -0.708000
     10 CAK          1.3570    -0.2450    -4.9510 ca         1 8HQ       0.031800
     11 CAL         -0.1190    -0.2520    -2.5750 ca         1 8HQ      -0.084000
     12 CA0          1.2140     0.0000     0.0000 c          1 8HQ       0.886200
     13 CAM          1.2740    -0.1250    -2.5180 ca         1 8HQ      -0.134300
     14 CAN          2.0300    -0.1210    -3.7160 ca         1 8HQ       0.392600
     15 HAD          3.8960     0.2140    -0.3850 ha         1 8HQ       0.159000
     16 HAE          5.0810     0.2060    -2.5460 h4         1 8HQ      -0.000900
     17 HAF         -0.5320    -0.4610    -5.9130 ha         1 8HQ       0.114000
     18 HAG         -1.8210    -0.4660    -3.8180 ha         1 8HQ       0.116000
     19 HAL         -0.7000    -0.2550    -1.6610 ha         1 8HQ       0.212000
     20 HOC          1.9110     0.5700    -6.5680 ho         1 8HQ       0.401000
@<TRIPOS>BOND
     1     2    12 1
     2     1    12 1
     3     3    10 1
     4     4     5 ar
     5     4     8 ar
     6     5     9 ar
     7     6     7 ar
     8     6    10 ar
     9     7    11 ar
    10     8    13 ar
    11     8    12 1
    12     9    14 ar
    13    10    14 ar
    14    11    13 ar
    15    13    14 ar
    16     3    20 1
    17     4    15 1
    18     5    16 1
    19     6    17 1
    20     7    18 1
    21    11    19 1
@<TRIPOS>SUBSTRUCTURE
     1 8HQ         1 TEMP              0 ****  ****    0 ROOT
