@<TRIPOS>MOLECULE
8HQ
   20    21     1     0     0
SMALL
bcc


@<TRIPOS>ATOM
      1 OAB         0.0930    0.4650    0.2050 o         1 8HQ     -0.817300
      2 OAA         1.9260   -0.5260    1.0050 o         1 8HQ     -0.817300
      3 OAC         1.8760   -0.1750   -6.2190 oh        1 8HQ     -0.524100
      4 CAD         3.2930    0.3020   -1.3460 ca        1 8HQ     -0.250300
      5 CAE         3.9450    0.3680   -2.6080 ca        1 8HQ      0.404200
      6 CAF        -0.1050   -0.4470   -4.9940 ca        1 8HQ     -0.176000
      7 CAG        -0.8150   -0.4990   -3.7760 ca        1 8HQ     -0.144000
      8 CAH         1.9330    0.0730   -1.2970 ca        1 8HQ     -0.062600
      9 NAI         3.3340    0.2120   -3.7720 nb        1 8HQ     -0.725000
     10 CAK         1.2570   -0.2140   -4.9860 ca        1 8HQ      0.056800
     11 CAL        -0.1710   -0.3270   -2.5760 ca        1 8HQ     -0.105000
     12 CA0         1.2560   -0.0050    0.0710 c         1 8HQ      0.908200
     13 CAM         1.2290   -0.0940   -2.5300 ca        1 8HQ     -0.098300
     14 CAN         1.9740   -0.0260   -3.7500 ca        1 8HQ      0.328600
     15 HAD         3.8660    0.4110   -0.4140 ha        1 8HQ      0.157000
     16 HAE         5.0330    0.5570   -2.6570 h4        1 8HQ     -0.004900
     17 HAF        -0.6290   -0.5880   -5.9490 ha        1 8HQ      0.128000
     18 HAG        -1.8990   -0.6770   -3.8060 ha        1 8HQ      0.118000
     19 HAL        -0.7180   -0.3420   -1.6140 ha        1 8HQ      0.192000
     20 HOC         2.8180   -0.0020   -6.0840 ho        1 8HQ      0.433000
@<TRIPOS>BOND
     1    1   12 1   
     2    2   12 1   
     3    3   10 1   
     4    3   20 1   
     5    4    5 ar  
     6    4    8 ar  
     7    4   15 1   
     8    5    9 ar  
     9    5   16 1   
    10    6    7 ar  
    11    6   10 ar  
    12    6   17 1   
    13    7   11 ar  
    14    7   18 1   
    15    8   12 1   
    16    8   13 ar  
    17    9   14 ar  
    18   10   14 ar  
    19   11   13 ar  
    20   11   19 1   
    21   13   14 ar  
@<TRIPOS>SUBSTRUCTURE
     1 8HQ         1 TEMP              0 ****  ****    0 ROOT
