@<TRIPOS>MOLECULE
8HR
   55    58     1     0     0
SMALL
bcc


@<TRIPOS>ATOM
      1 CAA          0.0000     0.0000     0.0000 ca         1 8HR       0.379600
      2 CAB          1.4180     0.0000     0.0000 ca         1 8HR      -0.140300
      3 CAC          2.1180     0.0000     1.2180 ca         1 8HR      -0.086000
      4 CAD          1.4370    -0.0030     2.3930 ca         1 8HR      -0.053000
      5 CAE          0.0310    -0.0040     2.4090 ca         1 8HR      -0.127600
      6 CAF         -0.6870    -0.0080     1.2260 ca         1 8HR      -0.132300
      7 CAH         -0.0340     0.0070    -2.3150 cp         1 8HR       0.464800
      8 CAI          1.3680     0.0050    -2.3830 ca         1 8HR      -0.211300
      9 CAJ          2.1030     0.0020    -1.2340 ca         1 8HR       0.001400
     10 CAK         -0.8200     0.0080    -3.5720 cp         1 8HR      -0.166500
     11 CAL         -0.6870    -0.0060     3.7020 c          1 8HR       0.609700
     12 CAO         -2.0560     1.8540     2.8940 c3         1 8HR       0.015000
     13 CAP         -1.9200     3.2790     3.4450 c3         1 8HR       0.039500
     14 CAR         -2.1800     2.3920     5.8000 c3         1 8HR       0.039500
     15 CAS         -2.3160     0.9680     5.2480 c3         1 8HR       0.015000
     16 CAT         -3.5500     4.2530     4.9900 c          1 8HR       0.702100
     17 CAW         -5.1800     5.3060     6.3790 c3         1 8HR       0.239400
     18 CAX         -5.7440     5.2070     7.7980 c3         1 8HR      -0.041400
     19 CAY         -6.8280     6.2680     7.9910 c3         1 8HR       0.013900
     20 CAZ         -2.2140     0.0020    -3.5250 ca         1 8HR      -0.075500
     21 CBA         -2.9410     0.0030    -4.6990 ca         1 8HR      -0.107000
     22 CBB         -2.2890     0.0100    -5.9190 ca         1 8HR      -0.086000
     23 CBC         -0.9070     0.0160    -5.9710 ca         1 8HR      -0.107000
     24 CBD         -0.1690     0.0210    -4.8040 ca         1 8HR      -0.075500
     25 NAG         -0.6680     0.0010    -1.1590 nb         1 8HR      -0.565000
     26 NAM         -1.6510     0.9060     3.9390 n          1 8HR      -0.150800
     27 NAQ         -2.5850     3.3420     4.7540 n          1 8HR      -0.144800
     28 OAN         -0.4080    -0.8300     4.5510 o          1 8HR      -0.636100
     29 OAU         -3.8760     5.0330     4.1180 o          1 8HR      -0.657000
     30 OAV         -4.1510     4.3000     6.1940 os         1 8HR      -0.425900
     31 H1           3.2010     0.0010     1.2190 ha         1 8HR       0.120000
     32 H2           1.9840     0.0010     3.3290 ha         1 8HR       0.120000
     33 H3          -1.7700    -0.0090     1.2450 ha         1 8HR       0.129000
     34 H4           1.8640    -0.0660    -3.3430 ha         1 8HR       0.134000
     35 Cl1          3.8390     0.0050    -1.2870 cl         1 8HR       0.001600
     36 H6          -3.0870     1.6700     2.6170 h1         1 8HR       0.045450
     37 H7          -1.4150     1.7370     2.0290 h1         1 8HR       0.045450
     38 H8          -0.8710     3.5250     3.5580 h1         1 8HR       0.040700
     39 H9          -2.3920     3.9780     2.7640 h1         1 8HR       0.040700
     40 H10         -2.8230     2.5090     6.6640 h1         1 8HR       0.040700
     41 H11         -1.1500     2.5770     6.0780 h1         1 8HR       0.040700
     42 H12         -1.8440     0.2690     5.9280 h1         1 8HR       0.045450
     43 H13         -3.3650     0.7220     5.1340 h1         1 8HR       0.045450
     44 H14         -5.9760     5.1440     5.6620 h1         1 8HR       0.012700
     45 H15         -4.7530     6.2910     6.2280 h1         1 8HR       0.012700
     46 H16         -6.1710     4.2230     7.9480 hc         1 8HR       0.019200
     47 H17         -4.9480     5.3690     8.5150 hc         1 8HR       0.019200
     48 H18         -6.4020     7.2520     7.8400 hc         1 8HR       0.004033
     49 H19         -7.6240     6.1050     7.2750 hc         1 8HR       0.004033
     50 H20         -7.2260     6.1980     8.9960 hc         1 8HR       0.004033
     51 H21         -2.7250    -0.0040    -2.5700 ha         1 8HR       0.116000
     52 H22         -4.0230    -0.0020    -4.6640 ha         1 8HR       0.104500
     53 H23         -2.8640     0.0080    -6.8370 ha         1 8HR       0.102000
     54 H24         -0.4020     0.0240    -6.9300 ha         1 8HR       0.104500
     55 H25          0.9130     0.0260    -4.8460 ha         1 8HR       0.116000
@<TRIPOS>BOND
     1     1     2 ar  
     2     1     6 ar  
     3     1    25 ar  
     4     2     3 ar  
     5     2     9 ar  
     6     3     4 ar  
     7     3    31 1   
     8     4     5 ar  
     9     4    32 1   
    10     5     6 ar  
    11     5    11 1   
    12     6    33 1   
    13     7     8 ar  
    14     7    10 1   
    15     7    25 ar  
    16     8     9 ar  
    17     8    34 1   
    18     9    35 1   
    19    10    20 ar  
    20    10    24 ar  
    21    11    26 1   
    22    11    28 2   
    23    12    13 1   
    24    12    26 1   
    25    12    36 1   
    26    12    37 1   
    27    13    27 1   
    28    13    38 1   
    29    13    39 1   
    30    14    15 1   
    31    14    27 1   
    32    14    40 1   
    33    14    41 1   
    34    15    26 1   
    35    15    42 1   
    36    15    43 1   
    37    16    27 1   
    38    16    29 2   
    39    16    30 1   
    40    17    18 1   
    41    17    30 1   
    42    17    44 1   
    43    17    45 1   
    44    18    19 1   
    45    18    46 1   
    46    18    47 1   
    47    19    48 1   
    48    19    49 1   
    49    19    50 1   
    50    20    21 ar  
    51    20    51 1   
    52    21    22 ar  
    53    21    52 1   
    54    22    23 ar  
    55    22    53 1   
    56    23    24 ar  
    57    23    54 1   
    58    24    55 1   
@<TRIPOS>SUBSTRUCTURE
     1 8HR         1 TEMP              0 ****  ****    0 ROOT
