@<TRIPOS>MOLECULE
molecule
   29    29     1     0     0
SMALL
bcc


@<TRIPOS>ATOM
      1 C14          0.0000     0.0000     0.0000 c3         1 8HS      -0.100600
      2 C12          1.5300     0.0000     0.0000 c3         1 8HS       0.318600
      3 C13          2.0440     1.2460    -0.7260 c3         1 8HS      -0.100600
      4 C02          4.2590    -1.6210     0.1390 c          1 8HS       0.666100
      5 C03          2.7900    -1.9210     0.2970 c3         1 8HS       0.029100
      6 C04          2.2670    -1.3930     1.6570 c3         1 8HS       0.109100
      7 C05          3.3320    -1.5330     2.7450 c3         1 8HS       0.220400
      8 N16          5.1660    -2.2930     0.8770 ns         1 8HS      -0.455400
      9 O01          4.6240    -0.7780    -0.6510 o          1 8HS      -0.597100
     10 O06          2.7790    -1.1530     4.0060 os         1 8HS      -0.561200
     11 O08          4.0220    -2.6950     5.7340 o          1 8HS      -0.903833
     12 O09          4.8500    -0.3680     5.2170 o          1 8HS      -0.903833
     13 O10          2.7270    -0.5650     6.5680 o          1 8HS      -0.903833
     14 O11          2.0140     0.0000     1.3540 os         1 8HS      -0.367600
     15 O15          2.0130    -1.1760    -0.6620 os         1 8HS      -0.420600
     16 O17          6.5340    -1.9370     0.8090 oh         1 8HS      -0.352100
     17 P07          3.6210    -1.1780     5.3780 p5         1 8HS       1.170900
     18 H1          -0.3610    -0.9910     0.2490 hc         1 8HS       0.041200
     19 H2          -0.3610     0.2800    -0.9820 hc         1 8HS       0.041200
     20 H3          -0.3610     0.7110     0.7330 hc         1 8HS       0.041200
     21 H4           2.0430     1.0680    -1.7940 hc         1 8HS       0.041200
     22 H5           3.0530     1.4650    -0.3970 hc         1 8HS       0.041200
     23 H6           1.4000     2.0870    -0.5000 hc         1 8HS       0.041200
     24 H7           2.5960    -2.9830     0.2010 h1         1 8HS       0.069700
     25 H8           1.3500    -1.8970     1.9370 h1         1 8HS       0.063700
     26 H9           4.1730    -0.8910     2.5120 h1         1 8HS       0.026700
     27 H10          3.6660    -2.5620     2.7930 h1         1 8HS       0.026700
     28 H11          4.8820    -3.0860     1.4170 hn         1 8HS       0.342500
     29 H14          7.0540    -2.7120     0.6740 ho         1 8HS       0.373000
@<TRIPOS>BOND
     1     3     2 1
     2    16     8 1
     3     1     2 1
     4     8     4 1
     5     2    15 1
     6     2    14 1
     7    12    17 1
     8    15     5 1
     9    14     6 1
    10     4     5 1
    11     4     9 2
    12    17    13 1
    13    17    11 1
    14    17    10 1
    15     5     6 1
    16     7     6 1
    17     7    10 1
    18     1    18 1
    19     1    19 1
    20     1    20 1
    21     3    21 1
    22     3    22 1
    23     3    23 1
    24     5    24 1
    25     6    25 1
    26     7    26 1
    27     7    27 1
    28     8    28 1
    29    16    29 1
@<TRIPOS>SUBSTRUCTURE
     1 8HS         1 TEMP              0 ****  ****    0 ROOT
