@<TRIPOS>MOLECULE
molecule
   59    62     1     0     0
SMALL
bcc


@<TRIPOS>ATOM
      1 C23          0.0000     0.0000     0.0000 ca         1 8HT      -0.141000
      2 C22          1.3830     0.0000     0.0000 ca         1 8HT      -0.119000
      3 C24         -0.6970    -0.0010     1.1950 ca         1 8HT      -0.119000
      4 C30          6.3980     0.0000    12.0000 ca         1 8HT      -0.113000
      5 C31          7.6740    -0.7410    12.5740 ca         1 8HT      -0.259000
      6 C21          2.0750     0.0000     1.1940 ca         1 8HT      -0.120000
      7 C25         -0.0160    -0.0010     2.3950 ca         1 8HT      -0.120000
      8 C16          3.5120     0.0000     3.6900 ca         1 8HT      -0.167500
      9 C18          1.4160    -0.0020     4.8930 ca         1 8HT      -0.167500
     10 C15          4.1980     0.0000     4.8830 ca         1 8HT      -0.057000
     11 C19          2.1010    -0.0130     6.0870 ca         1 8HT      -0.057000
     12 C29          6.8280     0.6880    10.8590 ca         1 8HT      -0.490000
     13 C32          8.8540    -0.5040    11.7940 ca         1 8HT      -0.087000
     14 C20          1.3780    -0.0010     2.4010 cp         1 8HT      -0.067000
     15 C17          2.1160    -0.0000     3.6870 cp         1 8HT      -0.038000
     16 C14          3.4970    -0.0070     6.0910 ca         1 8HT      -0.101600
     17 C28          7.9110     1.4890    10.9180 ca         1 8HT      -0.207200
     18 C33          9.1580     0.7990    11.2320 ca         1 8HT      -0.023600
     19 C26          6.2020     1.8360     9.4610 cc         1 8HT       1.015800
     20 C12          4.2140     0.0030     7.3830 c          1 8HT       0.609700
     21 C3          10.2200    -4.4770     8.4130 c2         1 8HT       0.787200
     22 C2           9.8800    -5.9420     8.1300 c3         1 8HT       0.094600
     23 C8           7.5310    -0.5020     9.1480 c3         1 8HT      -0.010400
     24 C6           8.8550    -2.3280     8.6360 c3         1 8HT       0.244800
     25 C9           6.0830     0.1970     9.1740 c3         1 8HT       0.002400
     26 N27          5.2300     1.0370     9.7890 na         1 8HT      -0.387300
     27 N4          11.0500    -3.8420     8.5610 n2         1 8HT      -0.874100
     28 N34         10.2730     1.1930    10.4450 nd         1 8HT      -0.570100
     29 N11          5.6250     0.2040     7.4980 ns         1 8HT      -0.627900
     30 N5           9.0550    -3.6920     8.5260 nu         1 8HT      -1.056200
     31 O13          3.3350     0.2000     8.4210 o          1 8HT      -0.706100
     32 H1          -0.4750     0.1810    -0.9570 ha         1 8HT       0.134000
     33 H2           1.5960    -0.0180    -1.0620 ha         1 8HT       0.140000
     34 H3          -1.7760    -0.1040     1.2220 ha         1 8HT       0.140000
     35 H4           5.6590    -0.1420    12.7790 ha         1 8HT       0.179000
     36 H5           7.7820    -1.4470    13.3890 ha         1 8HT       0.149000
     37 H6           3.1520     0.0130     1.0730 ha         1 8HT       0.145500
     38 H7          -0.1730     0.4390     3.3720 ha         1 8HT       0.145500
     39 H8           3.6890     0.0930     2.6250 ha         1 8HT       0.155500
     40 H9           0.3650    -0.1800     4.7020 ha         1 8HT       0.155500
     41 H10          5.2340    -0.2200     4.6570 ha         1 8HT       0.149000
     42 H11          1.3890    -0.4380     6.7850 ha         1 8HT       0.149000
     43 H12          6.0110     1.3950    10.7770 ha         1 8HT       0.159000
     44 H13          9.7490    -1.0200    12.1200 ha         1 8HT       0.117000
     45 H14          9.4810    -6.4310     9.0100 h1         1 8HT       0.104200
     46 H15          9.6760    -6.2840     7.1220 h1         1 8HT       0.104200
     47 H17          6.8530    -2.2610     9.6910 hc         1 8HT       0.061700
     48 H18          6.8320    -1.8940     7.9080 hc         1 8HT       0.061700
     49 H19          7.8890    -0.2280    10.1330 hc         1 8HT       0.125700
     50 H20          7.9260     0.2240     8.4480 hc         1 8HT       0.125700
     51 H21          9.3980    -1.7380     7.9080 h1         1 8HT       0.037700
     52 H22          9.3750    -2.2780     9.5850 h1         1 8HT       0.037700
     53 H23          5.4920    -0.4810     9.7780 h1         1 8HT       0.167700
     54 H24          4.5180     0.4930    10.2360 hn         1 8HT       0.380700
     55 H25         11.0330    -2.9150     8.9390 hn         1 8HT       0.502400
     56 H27          6.1320     0.1200     6.6390 hn         1 8HT       0.336500
     57 H28          8.2180    -4.1320     8.1980 hn         1 8HT       0.351800
     58 F1          11.2830    -6.7670     8.0020 f          1 8HT      -0.308300
     59 C7           7.4030    -1.9040     8.8290 c3         1 8HT      -0.074400
@<TRIPOS>BOND
     1     1     3 ar  
     2     1     2 ar  
     3     3     7 ar  
     4     2     6 ar  
     5     7    14 ar  
     6     6    14 ar  
     7    14    15 1   
     8     9    15 ar  
     9     9    11 ar  
    10    15     8 ar  
    11    11    16 ar  
    12     8    10 ar  
    13    16    10 ar  
    14    16    20 1   
    15    29    20 1   
    16    29    25 1   
    17    20    31 2   
    18    26    17 1   
    19    26    19 1   
    20    12    17 ar  
    21    12     4 ar  
    22    23    25 1   
    23    23    59 1   
    24    17    18 ar  
    25    25    19 1   
    26    19    28 2   
    27    22    21 1   
    28     4     5 ar  
    29    24    59 1   
    30    24    30 1   
    31    18    28 1   
    32    18    13 ar  
    33    21    30 1   
    34    21    27 2   
    35     5    13 ar  
    36     1    32 1   
    37     2    33 1   
    38     3    34 1   
    39     4    35 1   
    40     5    36 1   
    41     6    37 1   
    42     7    38 1   
    43     8    39 1   
    44     9    40 1   
    45    10    41 1   
    46    11    42 1   
    47    12    43 1   
    48    13    44 1   
    49    22    45 1   
    50    22    46 1   
    51    59    47 1   
    52    59    48 1   
    53    23    49 1   
    54    23    50 1   
    55    24    51 1   
    56    24    52 1   
    57    25    53 1   
    58    26    54 1   
    59    27    55 1   
    60    29    56 1   
    61    30    57 1   
    62    22    58 1   
@<TRIPOS>SUBSTRUCTURE
     1 8HT         1 TEMP              0 ****  ****    0 ROOT
