@<TRIPOS>MOLECULE
8HV
   57    60     1     0     0
SMALL
bcc


@<TRIPOS>ATOM
      1 N1           0.0000     0.0000     0.0000 ns         1 8HV      -0.024100
      2 C4          -3.6790     1.9780    -6.6410 c3         1 8HV       0.031500
      3 C5          -2.9490     1.8740    -5.2980 c3         1 8HV      -0.041900
      4 C6          -2.8250     0.4000    -4.9030 c3         1 8HV       0.005600
      5 C7          -4.2210    -0.2060    -4.7430 c3         1 8HV      -0.041900
      6 C8          -4.9660    -0.1240    -6.0790 c3         1 8HV       0.031500
      7 C10         -2.5760     0.9000    -2.4640 ca         1 8HV      -0.081500
      8 C13          1.3470     0.0000     0.0000 c          1 8HV       0.525100
      9 C15          2.4290     0.0000     3.3500 ca         1 8HV      -0.079000
     10 C17          3.6580    -0.0010     5.4020 ca         1 8HV      -0.126000
     11 C20          3.7100     0.0000     2.6110 ca         1 8HV      -0.088000
     12 C21          3.3810     0.0000     1.2780 cc         1 8HV      -0.244400
     13 C22         -0.1980    -0.5140    -2.3520 ca         1 8HV      -0.105500
     14 C18          4.8720     0.0020     4.7030 ca         1 8HV       0.090900
     15 C16          2.4640    -0.0020     4.7640 ca         1 8HV      -0.040000
     16 C19          4.9170     0.0020     3.3470 ca         1 8HV      -0.085000
     17 C14          1.4390    -0.0050     2.3980 cc         1 8HV      -0.338400
     18 N2           2.0210     0.0000     1.1670 n          1 8HV       0.369800
     19 O2           1.9540     0.0020    -1.0520 o          1 8HV      -0.635100
     20 C12         -0.7010     0.0920    -1.2080 ca         1 8HV      -0.104400
     21 C11         -1.8940     0.8010    -1.2680 ca         1 8HV      -0.105500
     22 C23         -0.8920    -0.4200    -3.5430 ca         1 8HV      -0.081500
     23 C9          -2.0760     0.2900    -3.6000 ca         1 8HV      -0.088300
     24 N           -4.9630     1.2710    -6.5370 n          1 8HV      -0.131800
     25 C3          -6.1170     1.8920    -6.8560 c          1 8HV       0.588100
     26 O1          -6.0960     3.0200    -7.3000 o          1 8HV      -0.652100
     27 C1          -7.4320     1.1830    -6.6610 c3         1 8HV       0.094800
     28 O           -7.3440    -0.1400    -7.1950 oh         1 8HV      -0.595800
     29 C2          -7.7570     1.1100    -5.1680 c3         1 8HV      -0.022100
     30 C           -8.5380     1.9520    -7.3870 c3         1 8HV      -0.022100
     31 H1          -0.5000    -0.0880     0.8630 hn         1 8HV       0.175500
     32 H2          -3.0770     1.5230    -7.4170 h1         1 8HV       0.042450
     33 H3          -3.8580     3.0210    -6.8760 h1         1 8HV       0.042450
     34 H4          -1.9600     2.3060    -5.3920 hc         1 8HV       0.025700
     35 H5          -3.5120     2.4040    -4.5400 hc         1 8HV       0.025700
     36 H6          -2.2900    -0.1350    -5.6780 hc         1 8HV       0.035700
     37 H7          -4.1320    -1.2430    -4.4430 hc         1 8HV       0.025700
     38 H8          -4.7700     0.3470    -3.9900 hc         1 8HV       0.025700
     39 H9          -5.9880    -0.4590    -5.9450 h1         1 8HV       0.042450
     40 H10         -4.4670    -0.7470    -6.8110 h1         1 8HV       0.042450
     41 H11         -3.5070     1.4530    -2.5120 ha         1 8HV       0.112000
     42 H12          3.6750    -0.0040     6.4850 ha         1 8HV       0.114000
     43 H13          4.0830     0.0010     0.4530 h4         1 8HV       0.170000
     44 H14          0.7310    -1.0710    -2.3070 ha         1 8HV       0.125500
     45 H15          1.5420    -0.0040     5.3320 ha         1 8HV       0.103000
     46 H16          5.8700     0.0040     2.8330 ha         1 8HV       0.119000
     47 H17          0.3740    -0.0110     2.5940 h4         1 8HV       0.150000
     48 H18         -2.2860     1.2790    -0.3780 ha         1 8HV       0.125500
     49 H19         -0.5010    -0.8930    -4.4360 ha         1 8HV       0.112000
     50 H20         -8.0890    -0.3060    -7.7480 ho         1 8HV       0.403000
     51 H21         -7.0980     1.7740    -4.6220 hc         1 8HV       0.019367
     52 H22         -8.7860     1.4110    -5.0080 hc         1 8HV       0.019367
     53 H23         -7.6190     0.0950    -4.8180 hc         1 8HV       0.019367
     54 H24         -8.6090     2.9540    -6.9800 hc         1 8HV       0.019367
     55 H25         -8.3050     2.0080    -8.4440 hc         1 8HV       0.019367
     56 H26         -9.4820     1.4400    -7.2530 hc         1 8HV       0.019367
     57 F            6.0300     0.0060     5.3980 f          1 8HV      -0.133900
@<TRIPOS>BOND
     1     1     8 1   
     2     1    20 1   
     3     1    31 1   
     4     2     3 1   
     5     2    24 1   
     6     2    32 1   
     7     2    33 1   
     8     3     4 1   
     9     3    34 1   
    10     3    35 1   
    11     4     5 1   
    12     4    23 1   
    13     4    36 1   
    14     5     6 1   
    15     5    37 1   
    16     5    38 1   
    17     6    24 1   
    18     6    39 1   
    19     6    40 1   
    20     7    21 ar  
    21     7    23 ar  
    22     7    41 1   
    23     8    18 1   
    24     8    19 2   
    25     9    11 ar  
    26     9    15 ar  
    27     9    17 2   
    28    10    14 ar  
    29    10    15 ar  
    30    10    42 1   
    31    11    12 2   
    32    11    16 ar  
    33    12    18 1   
    34    12    43 1   
    35    13    20 ar  
    36    13    22 ar  
    37    13    44 1   
    38    14    16 ar  
    39    14    57 1   
    40    15    45 1   
    41    16    46 1   
    42    17    18 1   
    43    17    47 1   
    44    20    21 ar  
    45    21    48 1   
    46    22    23 ar  
    47    22    49 1   
    48    24    25 1   
    49    25    26 2   
    50    25    27 1   
    51    27    28 1   
    52    27    29 1   
    53    27    30 1   
    54    28    50 1   
    55    29    51 1   
    56    29    52 1   
    57    29    53 1   
    58    30    54 1   
    59    30    55 1   
    60    30    56 1   
@<TRIPOS>SUBSTRUCTURE
     1 8HV         1 TEMP              0 ****  ****    0 ROOT
