@<TRIPOS>MOLECULE
molecule
   60    63     1     0     0
SMALL
bcc


@<TRIPOS>ATOM
      1 F1           0.0000     0.0000     0.0000 f          1 8HW      -0.136900
      2 C19          1.3510     0.0000     0.0000 ca         1 8HW       0.081900
      3 C20          2.0440     0.0000     1.1970 ca         1 8HW      -0.106000
      4 C21          3.4260     0.0000     1.1980 ca         1 8HW      -0.129300
      5 C22          4.1780     0.0010     2.5040 c3         1 8HW       0.207100
      6 N            4.7340    -1.3370     2.7490 n7         1 8HW      -0.793200
      7 C23          5.4750    -1.3750     4.0160 c3         1 8HW       0.039800
      8 C24          6.0300    -2.7590     4.2340 c          1 8HW       0.542100
      9 O3           5.8270    -3.6260     3.4170 o          1 8HW      -0.452100
     10 C25          6.8350    -3.0630     5.4700 c3         1 8HW      -0.280400
     11 C26          7.2680    -4.5070     5.4460 c          1 8HW       0.889600
     12 O4           6.9540    -5.2150     4.5190 o          1 8HW      -0.831800
     13 O5           8.0020    -5.0040     6.4530 o          1 8HW      -0.831800
     14 C2           2.0460    -0.0070    -1.2040 ca         1 8HW       0.127100
     15 C1           3.4330    -0.0120    -1.2010 ca         1 8HW      -0.250000
     16 C            4.1220     0.0000    -0.0000 ca         1 8HW       0.192900
     17 F            5.4720    -0.0050     0.0020 f          1 8HW      -0.116900
     18 O            1.3680    -0.0070    -2.3810 os         1 8HW      -0.320900
     19 C3           2.1460    -0.0140    -3.5790 c3         1 8HW       0.187700
     20 C4           1.2290    -0.0140    -4.7750 ca         1 8HW      -0.091300
     21 C5           1.7600    -0.0260    -6.0500 ca         1 8HW      -0.061300
     22 C6           3.2540    -0.0390    -6.2450 c3         1 8HW      -0.056800
     23 C7           0.9110    -0.0260    -7.1540 cp         1 8HW      -0.043000
     24 C16         -0.4700    -0.0140    -6.9650 ca         1 8HW      -0.112000
     25 C17         -0.9890    -0.0030    -5.6870 ca         1 8HW      -0.138000
     26 C18         -0.1410    -0.0080    -4.5940 ca         1 8HW      -0.094000
     27 C8           1.4740    -0.0370    -8.5260 cp         1 8HW      -0.035000
     28 C9           2.3510    -1.0490    -8.9130 ca         1 8HW      -0.112000
     29 C10          2.8720    -1.0620   -10.1950 ca         1 8HW       0.061100
     30 C11          2.5160    -0.0650   -11.0980 ca         1 8HW       0.060100
     31 C14          1.6440     0.9440   -10.7120 ca         1 8HW      -0.127000
     32 C15          1.1250     0.9600    -9.4350 ca         1 8HW      -0.119000
     33 O2           3.7320    -2.0530   -10.5550 os         1 8HW      -0.319900
     34 C13          3.9430    -2.2450   -11.9590 c3         1 8HW       0.098400
     35 C12          4.1720    -0.8710   -12.6020 c3         1 8HW       0.100400
     36 O1           3.0130    -0.0650   -12.3650 os         1 8HW      -0.325900
     37 H1           1.5030     0.0060     2.1350 ha         1 8HW       0.154000
     38 H2           4.9840     0.7230     2.4560 h1         1 8HW       0.035700
     39 H3           3.5040     0.2660     3.3090 h1         1 8HW       0.035700
     40 H4           3.9900    -2.0070     2.7780 hn         1 8HW       0.367800
     41 H6           4.8090    -1.1210     4.8320 h1         1 8HW       0.037700
     42 H7           6.2900    -0.6620     3.9790 h1         1 8HW       0.037700
     43 H8           6.2290    -2.8820     6.3490 hc         1 8HW       0.048700
     44 H9           7.7100    -2.4240     5.4970 hc         1 8HW       0.048700
     45 H11          3.9770     0.0180    -2.1380 ha         1 8HW       0.151000
     46 H12          2.7750     0.8680    -3.6060 h1         1 8HW       0.050700
     47 H13          2.7680    -0.9010    -3.6000 h1         1 8HW       0.050700
     48 H14          3.4930     0.3580    -7.2240 hc         1 8HW       0.049033
     49 H15          3.7230     0.5720    -5.4830 hc         1 8HW       0.049033
     50 H16          3.6190    -1.0560    -6.1680 hc         1 8HW       0.049033
     51 H17         -1.1350    -0.0120    -7.8210 ha         1 8HW       0.132000
     52 H18         -2.0620     0.0040    -5.5390 ha         1 8HW       0.131000
     53 H19         -0.5530     0.0010    -3.5920 ha         1 8HW       0.156000
     54 H20          2.5820    -1.8550    -8.2270 ha         1 8HW       0.154000
     55 H21          1.3690     1.7200   -11.4160 ha         1 8HW       0.144000
     56 H22          0.4530     1.7550    -9.1340 ha         1 8HW       0.140000
     57 H23          4.8140    -2.8700   -12.1140 h1         1 8HW       0.067700
     58 H24          3.0690    -2.7110   -12.3970 h1         1 8HW       0.067700
     59 H25          5.0300    -0.4020   -12.1360 h1         1 8HW       0.068200
     60 H26          4.3010    -0.9990   -13.6700 h1         1 8HW       0.068200
@<TRIPOS>BOND
     1    34    35 1
     2    34    33 1
     3    35    36 1
     4    33    29 1
     5    36    30 1
     6    29    30 ar
     7    29    28 ar
     8    30    31 ar
     9    28    27 ar
    10    31    32 ar
    11    27    32 ar
    12    27    23 1
    13    22    21 1
    14    23    21 ar
    15    23    24 ar
    16    21    20 ar
    17    24    25 ar
    18    20    19 1
    19    20    26 ar
    20    25    26 ar
    21    19    18 1
    22    17    16 1
    23    15    16 ar
    24    15    14 ar
    25    18    14 1
    26    16     4 ar
    27    14     2 ar
    28     4     5 1
    29     4     3 ar
    30     2     3 ar
    31     2     1 1
    32     5     6 1
    33     6     7 1
    34     7     8 1
    35    12    11 1
    36     8     9 2
    37     8    10 1
    38    11    13 1
    39    11    10 1
    40     3    37 1
    41     5    38 1
    42     5    39 1
    43     6    40 1
    44     7    41 1
    45     7    42 1
    46    10    43 1
    47    10    44 1
    48    15    45 1
    49    19    46 1
    50    19    47 1
    51    22    48 1
    52    22    49 1
    53    22    50 1
    54    24    51 1
    55    25    52 1
    56    26    53 1
    57    28    54 1
    58    31    55 1
    59    32    56 1
    60    34    57 1
    61    34    58 1
    62    35    59 1
    63    35    60 1
@<TRIPOS>SUBSTRUCTURE
     1 8HW         1 TEMP              0 ****  ****    0 ROOT
