@<TRIPOS>MOLECULE
8HW
   60    63     1     0     0
SMALL
bcc


@<TRIPOS>ATOM
      1 F1           0.0000     0.0000     0.0000 f          1 8HW      -0.124900
      2 C19          1.3510     0.0000     0.0000 ca         1 8HW       0.049900
      3 C20          2.0440     0.0000     1.1970 ca         1 8HW      -0.068000
      4 C21          3.4260     0.0000     1.1980 ca         1 8HW      -0.131300
      5 C22          4.1780     0.0010     2.5040 c3         1 8HW       0.202100
      6 N            4.7340    -1.3370     2.7490 n7         1 8HW      -0.556200
      7 C23          5.4750    -1.3750     4.0160 c3         1 8HW       0.028800
      8 C24          6.0300    -2.7590     4.2340 c          1 8HW       0.569100
      9 O3           5.8270    -3.6260     3.4170 o          1 8HW      -0.478100
     10 C25          6.8350    -3.0630     5.4700 c3         1 8HW      -0.221400
     11 C26          7.2680    -4.5070     5.4460 c          1 8HW       0.973600
     12 O4           6.9540    -5.2150     4.5190 o          1 8HW      -0.881800
     13 O5           8.0020    -5.0040     6.4530 o          1 8HW      -0.881800
     14 C2           2.0460    -0.0070    -1.2040 ca         1 8HW       0.143100
     15 C1           3.4330    -0.0120    -1.2010 ca         1 8HW      -0.232000
     16 C            4.1220     0.0000    -0.0000 ca         1 8HW       0.176900
     17 F            5.4720    -0.0050     0.0020 f          1 8HW      -0.114900
     18 O            1.3680    -0.0070    -2.3810 os         1 8HW      -0.295900
     19 C3           2.1460    -0.0140    -3.5790 c3         1 8HW       0.260700
     20 C4           1.2290    -0.0140    -4.7750 ca         1 8HW      -0.103300
     21 C5           1.7600    -0.0260    -6.0500 ca         1 8HW      -0.066300
     22 C6           3.2540    -0.0390    -6.2450 c3         1 8HW       0.039200
     23 C7           0.9110    -0.0260    -7.1540 cp         1 8HW      -0.037000
     24 C16         -0.4700    -0.0140    -6.9650 ca         1 8HW      -0.090000
     25 C17         -0.9890    -0.0030    -5.6870 ca         1 8HW      -0.108000
     26 C18         -0.1410    -0.0080    -4.5940 ca         1 8HW      -0.075000
     27 C8           1.4740    -0.0370    -8.5260 cp         1 8HW      -0.027000
     28 C9           2.3510    -1.0490    -8.9130 ca         1 8HW      -0.098000
     29 C10          2.8720    -1.0620   -10.1950 ca         1 8HW       0.069100
     30 C11          2.5160    -0.0650   -11.0980 ca         1 8HW       0.065100
     31 C14          1.6440     0.9440   -10.7120 ca         1 8HW      -0.105000
     32 C15          1.1250     0.9600    -9.4350 ca         1 8HW      -0.096000
     33 O2           3.7320    -2.0530   -10.5550 os         1 8HW      -0.296900
     34 C13          3.9430    -2.2450   -11.9590 c3         1 8HW       0.168400
     35 C12          4.1720    -0.8710   -12.6020 c3         1 8HW       0.169400
     36 O1           3.0130    -0.0650   -12.3650 os         1 8HW      -0.302900
     37 H1           1.5030     0.0060     2.1350 ha         1 8HW       0.124000
     38 H2           4.9840     0.7230     2.4560 h1         1 8HW       0.007700
     39 H3           3.5040     0.2660     3.3090 h1         1 8HW       0.007700
     40 H4           3.9900    -2.0070     2.7780 hn         1 8HW       0.265800
     41 H6           4.8090    -1.1210     4.8320 h1         1 8HW       0.012200
     42 H7           6.2900    -0.6620     3.9790 h1         1 8HW       0.012200
     43 H8           6.2290    -2.8820     6.3490 hc         1 8HW       0.021700
     44 H9           7.7100    -2.4240     5.4970 hc         1 8HW       0.021700
     45 H11          3.9770     0.0180    -2.1380 ha         1 8HW       0.136000
     46 H12          2.7750     0.8680    -3.6060 h1         1 8HW       0.014700
     47 H13          2.7680    -0.9010    -3.6000 h1         1 8HW       0.014700
     48 H14          3.4930     0.3580    -7.2240 hc         1 8HW       0.016700
     49 H15          3.7230     0.5720    -5.4830 hc         1 8HW       0.016700
     50 H16          3.6190    -1.0560    -6.1680 hc         1 8HW       0.016700
     51 H17         -1.1350    -0.0120    -7.8210 ha         1 8HW       0.106000
     52 H18         -2.0620     0.0040    -5.5390 ha         1 8HW       0.103000
     53 H19         -0.5530     0.0010    -3.5920 ha         1 8HW       0.126000
     54 H20          2.5820    -1.8550    -8.2270 ha         1 8HW       0.127000
     55 H21          1.3690     1.7200   -11.4160 ha         1 8HW       0.114000
     56 H22          0.4530     1.7550    -9.1340 ha         1 8HW       0.112000
     57 H23          4.8140    -2.8700   -12.1140 h1         1 8HW       0.023700
     58 H24          3.0690    -2.7110   -12.3970 h1         1 8HW       0.023700
     59 H25          5.0300    -0.4020   -12.1360 h1         1 8HW       0.025200
     60 H26          4.3010    -0.9990   -13.6700 h1         1 8HW       0.025200
@<TRIPOS>BOND
     1     1     2 1   
     2     2     3 ar  
     3     2    14 ar  
     4     3     4 ar  
     5     3    37 1   
     6     4     5 1   
     7     4    16 ar  
     8     5     6 1   
     9     5    38 1   
    10     5    39 1   
    11     6     7 1   
    12     6    40 1   
    13     7     8 1   
    14     7    41 1   
    15     7    42 1   
    16     8     9 2   
    17     8    10 1   
    18    10    11 1   
    19    10    43 1   
    20    10    44 1   
    21    11    12 1   
    22    11    13 1   
    23    14    15 ar  
    24    14    18 1   
    25    15    16 ar  
    26    15    45 1   
    27    16    17 1   
    28    18    19 1   
    29    19    20 1   
    30    19    46 1   
    31    19    47 1   
    32    20    21 ar  
    33    20    26 ar  
    34    21    22 1   
    35    21    23 ar  
    36    22    48 1   
    37    22    49 1   
    38    22    50 1   
    39    23    24 ar  
    40    23    27 1   
    41    24    25 ar  
    42    24    51 1   
    43    25    26 ar  
    44    25    52 1   
    45    26    53 1   
    46    27    28 ar  
    47    27    32 ar  
    48    28    29 ar  
    49    28    54 1   
    50    29    30 ar  
    51    29    33 1   
    52    30    31 ar  
    53    30    36 1   
    54    31    32 ar  
    55    31    55 1   
    56    32    56 1   
    57    33    34 1   
    58    34    35 1   
    59    34    57 1   
    60    34    58 1   
    61    35    36 1   
    62    35    59 1   
    63    35    60 1   
@<TRIPOS>SUBSTRUCTURE
     1 8HW         1 TEMP              0 ****  ****    0 ROOT
