@<TRIPOS>MOLECULE
8HX
   16    17     1     0     0
SMALL
bcc


@<TRIPOS>ATOM
      1 N1           0.0000     0.0000     0.0000 ns         1 8HX      -0.131500
      2 C2           1.3430     0.0000     0.0000 c          1 8HX       0.587500
      3 O2           1.9320     0.0020    -1.0650 o          1 8HX      -0.706500
      4 N3           2.0610     0.0000     1.1380 ns         1 8HX       0.049900
      5 C4           1.4350    -0.0020     2.3640 cc         1 8HX      -0.418000
      6 C5           0.0480    -0.0020     2.4180 cd         1 8HX       0.209800
      7 C6          -0.6950     0.0040     1.1580 c          1 8HX       0.544000
      8 O6          -1.9120     0.0040     1.1540 o          1 8HX      -0.622500
      9 N7          -0.3090    -0.0020     3.7280 nd         1 8HX      -0.547000
     10 C8           0.7710    -0.0020     4.4640 cc         1 8HX       0.406800
     11 O8           0.7940    -0.0040     5.8190 oh         1 8HX      -0.574300
     12 N9           1.8730    -0.0020     3.6550 na         1 8HX       0.260100
     13 HAC         -0.4930    -0.0030    -0.8710 hn         1 8HX       0.210500
     14 H1           3.0610     0.0000     1.0930 hn         1 8HX       0.178500
     15 HAA          0.2980     0.7300     6.1420 ho         1 8HX       0.424000
     16 HAB          2.8270    -0.0020     3.9560 hn         1 8HX       0.127700
@<TRIPOS>BOND
     1     1     2 1   
     2     1     7 1   
     3     1    13 1   
     4     2     3 2   
     5     2     4 1   
     6     4     5 1   
     7     4    14 1   
     8     5     6 2   
     9     5    12 1   
    10     6     7 1   
    11     6     9 1   
    12     7     8 2   
    13     9    10 2   
    14    10    11 1   
    15    10    12 1   
    16    11    15 1   
    17    12    16 1   
@<TRIPOS>SUBSTRUCTURE
     1 8HX         1 TEMP              0 ****  ****    0 ROOT
