@<TRIPOS>MOLECULE
8HY
   53    56     1     0     0
SMALL
bcc


@<TRIPOS>ATOM
      1 N1           0.0000     0.0000     0.0000 ns         1 8HY      -0.201900
      2 C4           2.0850     0.0060    -1.2780 ca         1 8HY      -0.165600
      3 C5           3.4830     0.0070    -1.2800 ca         1 8HY      -0.038500
      4 C6           4.1680     0.0180    -2.4750 ca         1 8HY      -0.125500
      5 C7           1.3470     0.0000     0.0000 c          1 8HY       0.596700
      6 C8          -0.7330     0.0000     1.2690 c3         1 8HY       0.050000
      7 C10         -3.0020    -0.0010     2.3140 c3         1 8HY       0.037900
      8 C13         -6.5200     1.1950     1.6490 ca         1 8HY      -0.098000
      9 C15         -6.5220    -1.1990     1.6600 ca         1 8HY      -0.098000
     10 C17          5.7050     0.2220    -7.2160 cc         1 8HY      -0.297900
     11 C20          7.9940     0.2450   -10.1660 ca         1 8HY      -0.104500
     12 C21          8.9780    -0.5820    -9.6080 ca         1 8HY      -0.104500
     13 C22          8.8620    -1.0890    -8.3580 ca         1 8HY      -0.059000
     14 C24          7.2740    -1.1100    -6.3280 cc         1 8HY      -0.297900
     15 O1           1.9560    -0.0050     1.0530 o          1 8HY      -0.648100
     16 C9          -2.2370    -0.0010     0.9890 c3         1 8HY      -0.041400
     17 C11         -4.4840    -0.0010     2.0390 ca         1 8HY      -0.094300
     18 C16         -5.1620    -1.1990     1.9130 ca         1 8HY      -0.097500
     19 C14         -7.2000    -0.0020     1.5280 ca         1 8HY      -0.103000
     20 C12         -5.1610     1.1950     1.9010 ca         1 8HY      -0.097500
     21 C3           1.3880     0.0180    -2.4890 ca         1 8HY      -0.038500
     22 C2           2.0790     0.0290    -3.6790 ca         1 8HY      -0.125500
     23 C1           3.4700     0.0290    -3.6780 ca         1 8HY      -0.071400
     24 N            4.1670     0.0420    -4.8850 ns         1 8HY      -0.029100
     25 C            5.3470    -0.6020    -4.9890 c          1 8HY       0.527100
     26 O            5.7580    -1.2720    -4.0620 o          1 8HY      -0.631100
     27 N2           6.0720    -0.5020    -6.1210 n          1 8HY       0.365800
     28 C23          7.7190    -0.7810    -7.5840 ca         1 8HY      -0.082000
     29 C18          6.6820     0.0930    -8.1720 ca         1 8HY      -0.082000
     30 C19          6.8730     0.5840    -9.4840 ca         1 8HY      -0.059000
     31 H1          -0.5000    -0.0030    -0.8670 hn         1 8HY       0.179500
     32 H2           4.0270    -0.0020    -0.3430 ha         1 8HY       0.117000
     33 H3           5.2510     0.0190    -2.4770 ha         1 8HY       0.125500
     34 H4          -0.4710    -0.8840     1.8370 h1         1 8HY       0.028200
     35 H5          -0.4720     0.8850     1.8360 h1         1 8HY       0.028200
     36 H6          -2.7400    -0.8860     2.8820 hc         1 8HY       0.022200
     37 H7          -2.7400     0.8830     2.8820 hc         1 8HY       0.022200
     38 H9          -7.0540    -2.1380     1.5640 ha         1 8HY       0.103000
     39 H10          4.7950     0.8010    -7.3150 h4         1 8HY       0.158500
     40 H11          8.1340     0.6260   -11.1700 ha         1 8HY       0.099000
     41 H12          9.8560    -0.8230   -10.1950 ha         1 8HY       0.099000
     42 H13          9.6390    -1.7260    -7.9530 ha         1 8HY       0.101000
     43 H14          7.7930    -1.7440    -5.6190 h4         1 8HY       0.158500
     44 H15         -2.5000     0.8830     0.4210 hc         1 8HY       0.019200
     45 H16         -2.4990    -0.8860     0.4220 hc         1 8HY       0.019200
     46 H17         -4.6300    -2.1370     2.0170 ha         1 8HY       0.105500
     47 H18         -8.2650    -0.0030     1.3300 ha         1 8HY       0.102000
     48 H19         -4.6280     2.1330     1.9960 ha         1 8HY       0.105500
     49 H20          0.3050     0.0170    -2.4910 ha         1 8HY       0.117000
     50 H21          1.5390     0.0380    -4.6180 ha         1 8HY       0.125500
     51 H22          3.7840     0.5150    -5.6800 hn         1 8HY       0.178500
     52 H23          6.1290     1.2250    -9.9410 ha         1 8HY       0.101000
     53 H8          -7.0520     2.1330     1.5430 ha         1 8HY       0.103000
@<TRIPOS>BOND
     1     1     5 1   
     2     1     6 1   
     3     1    31 1   
     4     2     3 ar  
     5     2     5 1   
     6     2    21 ar  
     7     3     4 ar  
     8     3    32 1   
     9     4    23 ar  
    10     4    33 1   
    11     5    15 2   
    12     6    16 1   
    13     6    34 1   
    14     6    35 1   
    15     7    16 1   
    16     7    17 1   
    17     7    36 1   
    18     7    37 1   
    19     8    19 ar  
    20     8    20 ar  
    21     8    53 1   
    22     9    18 ar  
    23     9    19 ar  
    24     9    38 1   
    25    10    27 1   
    26    10    29 2   
    27    10    39 1   
    28    11    12 ar  
    29    11    30 ar  
    30    11    40 1   
    31    12    13 ar  
    32    12    41 1   
    33    13    28 ar  
    34    13    42 1   
    35    14    27 1   
    36    14    28 2   
    37    14    43 1   
    38    16    44 1   
    39    16    45 1   
    40    17    18 ar  
    41    17    20 ar  
    42    18    46 1   
    43    19    47 1   
    44    20    48 1   
    45    21    22 ar  
    46    21    49 1   
    47    22    23 ar  
    48    22    50 1   
    49    23    24 1   
    50    24    25 1   
    51    24    51 1   
    52    25    26 2   
    53    25    27 1   
    54    28    29 ar  
    55    29    30 ar  
    56    30    52 1   
@<TRIPOS>SUBSTRUCTURE
     1 8HY         1 TEMP              0 ****  ****    0 ROOT
