@<TRIPOS>MOLECULE
molecule
   53    56     1     0     0
SMALL
bcc


@<TRIPOS>ATOM
      1 N1           0.0000     0.0000     0.0000 ns         1 8HY      -0.585900
      2 C4           2.0850     0.0060    -1.2780 ca         1 8HY      -0.161600
      3 C5           3.4830     0.0070    -1.2800 ca         1 8HY      -0.067000
      4 C6           4.1680     0.0180    -2.4750 ca         1 8HY      -0.154500
      5 C7           1.3470     0.0000     0.0000 c          1 8HY       0.674700
      6 C8          -0.7330     0.0000     1.2690 c3         1 8HY       0.112000
      7 C10         -3.0020    -0.0010     2.3140 c3         1 8HY      -0.031100
      8 C13         -6.5200     1.1950     1.6490 ca         1 8HY      -0.126000
      9 C15         -6.5220    -1.1990     1.6600 ca         1 8HY      -0.126000
     10 C17          5.7050     0.2220    -7.2160 cc         1 8HY      -0.121400
     11 C20          7.9940     0.2450   -10.1660 ca         1 8HY      -0.128000
     12 C21          8.9780    -0.5820    -9.6080 ca         1 8HY      -0.128000
     13 C22          8.8620    -1.0890    -8.3580 ca         1 8HY      -0.090000
     14 C24          7.2740    -1.1100    -6.3280 cc         1 8HY      -0.121400
     15 O1           1.9560    -0.0050     1.0530 o          1 8HY      -0.608100
     16 C9          -2.2370    -0.0010     0.9890 c3         1 8HY      -0.098400
     17 C11         -4.4840    -0.0010     2.0390 ca         1 8HY      -0.085300
     18 C16         -5.1620    -1.1990     1.9130 ca         1 8HY      -0.125000
     19 C14         -7.2000    -0.0020     1.5280 ca         1 8HY      -0.130000
     20 C12         -5.1610     1.1950     1.9010 ca         1 8HY      -0.125000
     21 C3           1.3880     0.0180    -2.4890 ca         1 8HY      -0.067000
     22 C2           2.0790     0.0290    -3.6790 ca         1 8HY      -0.154500
     23 C1           3.4700     0.0290    -3.6780 ca         1 8HY       0.084600
     24 N            4.1670     0.0420    -4.8850 ns         1 8HY      -0.475100
     25 C            5.3470    -0.6020    -4.9890 c          1 8HY       0.783100
     26 O            5.7580    -1.2720    -4.0620 o          1 8HY      -0.587100
     27 N2           6.0720    -0.5020    -6.1210 n          1 8HY      -0.160200
     28 C23          7.7190    -0.7810    -7.5840 ca         1 8HY      -0.093500
     29 C18          6.6820     0.0930    -8.1720 ca         1 8HY      -0.093500
     30 C19          6.8730     0.5840    -9.4840 ca         1 8HY      -0.090000
     31 H1          -0.5000    -0.0030    -0.8670 hn         1 8HY       0.313500
     32 H2           4.0270    -0.0020    -0.3430 ha         1 8HY       0.146500
     33 H3           5.2510     0.0190    -2.4770 ha         1 8HY       0.150000
     34 H4          -0.4710    -0.8840     1.8370 h1         1 8HY       0.055200
     35 H5          -0.4720     0.8850     1.8360 h1         1 8HY       0.055200
     36 H6          -2.7400    -0.8860     2.8820 hc         1 8HY       0.053200
     37 H7          -2.7400     0.8830     2.8820 hc         1 8HY       0.053200
     38 H9          -7.0540    -2.1380     1.5640 ha         1 8HY       0.130000
     39 H10          4.7950     0.8010    -7.3150 h4         1 8HY       0.181000
     40 H11          8.1340     0.6260   -11.1700 ha         1 8HY       0.127500
     41 H12          9.8560    -0.8230   -10.1950 ha         1 8HY       0.127500
     42 H13          9.6390    -1.7260    -7.9530 ha         1 8HY       0.128500
     43 H14          7.7930    -1.7440    -5.6190 h4         1 8HY       0.181000
     44 H15         -2.5000     0.8830     0.4210 hc         1 8HY       0.049200
     45 H16         -2.4990    -0.8860     0.4220 hc         1 8HY       0.049200
     46 H17         -4.6300    -2.1370     2.0170 ha         1 8HY       0.130500
     47 H18         -8.2650    -0.0030     1.3300 ha         1 8HY       0.129000
     48 H19         -4.6280     2.1330     1.9960 ha         1 8HY       0.130500
     49 H20          0.3050     0.0170    -2.4910 ha         1 8HY       0.146500
     50 H21          1.5390     0.0380    -4.6180 ha         1 8HY       0.150000
     51 H22          3.7840     0.5150    -5.6800 hn         1 8HY       0.332500
     52 H23          6.1290     1.2250    -9.9410 ha         1 8HY       0.128500
     53 H8          -7.0520     2.1330     1.5430 ha         1 8HY       0.130000
@<TRIPOS>BOND
     1    19     9 ar  
     2    19     8 ar  
     3     9    18 ar  
     4     8    20 ar  
     5    18    17 ar  
     6    20    17 ar  
     7    17     7 1   
     8     7    16 1   
     9    16     6 1   
    10     6     1 1   
    11    15     5 2   
    12     1     5 1   
    13     5     2 1   
    14     2     3 ar  
    15     2    21 ar  
    16     3     4 ar  
    17    21    22 ar  
    18     4    23 ar  
    19    22    23 ar  
    20    23    24 1   
    21    26    25 2   
    22    24    25 1   
    23    25    27 1   
    24    27    14 1   
    25    27    10 1   
    26    14    28 2   
    27    10    29 2   
    28    28    29 ar  
    29    28    13 ar  
    30    29    30 ar  
    31    13    12 ar  
    32    30    11 ar  
    33    12    11 ar  
    34     1    31 1   
    35     3    32 1   
    36     4    33 1   
    37     6    34 1   
    38     6    35 1   
    39     7    36 1   
    40     7    37 1   
    41     8    53 1   
    42     9    38 1   
    43    10    39 1   
    44    11    40 1   
    45    12    41 1   
    46    13    42 1   
    47    14    43 1   
    48    16    44 1   
    49    16    45 1   
    50    18    46 1   
    51    19    47 1   
    52    20    48 1   
    53    21    49 1   
    54    22    50 1   
    55    24    51 1   
    56    30    52 1   
@<TRIPOS>SUBSTRUCTURE
     1 8HY         1 TEMP              0 ****  ****    0 ROOT
