@<TRIPOS>MOLECULE
8HZ
   44    47     1     0     0
SMALL
bcc


@<TRIPOS>ATOM
      1 C1           0.0000     0.0000     0.0000 cc         1 8HZ      -0.238300
      2 C2           1.4110     0.0000     0.0000 cc         1 8HZ      -0.010300
      3 C5           1.3570     0.0000     2.3930 cd         1 8HZ      -0.073000
      4 C6           2.0780     0.0000     1.1840 cd         1 8HZ      -0.143000
      5 C7          -2.1250    -0.0000    -0.4670 cd         1 8HZ       0.137400
      6 C8          -3.3910    -0.0000    -1.2380 ca         1 8HZ      -0.027800
      7 C9          -3.4740     0.6920    -2.4460 ca         1 8HZ      -0.064000
      8 C10         -4.6530     0.6890    -3.1620 ca         1 8HZ      -0.141000
      9 C11         -4.5010    -0.6970    -0.7600 ca         1 8HZ      -0.064000
     10 C12         -5.6760    -0.6960    -1.4810 ca         1 8HZ      -0.141000
     11 C14         -3.3110     1.1250     2.6080 ca         1 8HZ       0.027600
     12 C15         -2.5980     2.2960     2.3820 ca         1 8HZ      -0.174500
     13 C17         -4.2730     1.0840     3.6100 ca         1 8HZ      -0.174500
     14 C18         -4.5170     2.2060     4.3770 ca         1 8HZ      -0.053000
     15 C19         -3.8070     3.3700     4.1480 ca         1 8HZ      -0.142300
     16 C20         -4.0770     4.5930     4.9870 c3         1 8HZ       0.072200
     17 C13         -5.7570    -0.0020    -2.6800 ca         1 8HZ       0.126100
     18 C           -2.0150    -0.0040     0.9080 cc         1 8HZ      -0.336100
     19 N2          -3.0650    -0.0060     1.8280 nu         1 8HZ      -0.197400
     20 C16         -2.8480     3.4150     3.1530 ca         1 8HZ      -0.053000
     21 N1          -0.8840    -0.0010    -0.9850 nd         1 8HZ      -0.232600
     22 N           -0.6780    -0.0050     1.1980 na         1 8HZ       0.621700
     23 C4           0.0090    -0.0090     2.3810 cc         1 8HZ      -0.290300
     24 C3           2.1720    -0.0020    -1.3000 c3         1 8HZ       0.067200
     25 H1           1.8880     0.0000     3.3370 ha         1 8HZ       0.116000
     26 H2           3.1610     0.0080     1.1980 ha         1 8HZ       0.121000
     27 H3          -2.6130     1.2310    -2.8220 ha         1 8HZ       0.111000
     28 H4          -4.7180     1.2280    -4.0990 ha         1 8HZ       0.113500
     29 H5          -4.4390    -1.2390     0.1760 ha         1 8HZ       0.111000
     30 H6          -6.5390    -1.2360    -1.1090 ha         1 8HZ       0.113500
     31 H7          -1.8470     2.3320     1.6020 ha         1 8HZ       0.111000
     32 H8          -4.8300     0.1720     3.7890 ha         1 8HZ       0.111000
     33 H9          -5.2670     2.1740     5.1580 ha         1 8HZ       0.102500
     34 H10         -5.1320     4.8330     4.9460 hc         1 8HZ       0.004033
     35 H11         -3.5020     5.4270     4.6050 hc         1 8HZ       0.004033
     36 H12         -3.7900     4.3970     6.0130 hc         1 8HZ       0.004033
     37 H13         -6.9500    -0.7690    -3.9380 ho         1 8HZ       0.402000
     38 H14         -3.6100    -0.8340     1.9630 hn         1 8HZ       0.286800
     39 H15         -2.2930     4.3290     2.9770 ha         1 8HZ       0.102500
     40 H17         -0.5350    -0.0090     3.3180 h4         1 8HZ       0.145000
     41 H18          2.0550     0.9580    -1.7890 hc         1 8HZ       0.016700
     42 H19          3.2220    -0.1820    -1.1050 hc         1 8HZ       0.016700
     43 H20          1.7850    -0.7830    -1.9440 hc         1 8HZ       0.016700
     44 O           -6.9180    -0.0030    -3.3890 oh         1 8HZ      -0.502100
@<TRIPOS>BOND
     1     1     2 1   
     2     1    21 2   
     3     1    22 1   
     4     2     4 2   
     5     2    24 1   
     6     3     4 1   
     7     3    23 2   
     8     3    25 1   
     9     4    26 1   
    10     5     6 1   
    11     5    18 2   
    12     5    21 1   
    13     6     7 ar  
    14     6     9 ar  
    15     7     8 ar  
    16     7    27 1   
    17     8    17 ar  
    18     8    28 1   
    19     9    10 ar  
    20     9    29 1   
    21    10    17 ar  
    22    10    30 1   
    23    11    12 ar  
    24    11    13 ar  
    25    11    19 1   
    26    12    20 ar  
    27    12    31 1   
    28    13    14 ar  
    29    13    32 1   
    30    14    15 ar  
    31    14    33 1   
    32    15    16 1   
    33    15    20 ar  
    34    16    34 1   
    35    16    35 1   
    36    16    36 1   
    37    17    44 1   
    38    18    19 1   
    39    18    22 1   
    40    19    38 1   
    41    20    39 1   
    42    22    23 1   
    43    23    40 1   
    44    24    41 1   
    45    24    42 1   
    46    24    43 1   
    47    37    44 1   
@<TRIPOS>SUBSTRUCTURE
     1 8HZ         1 TEMP              0 ****  ****    0 ROOT
