@<TRIPOS>MOLECULE
8I1
   64    68     1     0     0
SMALL
bcc


@<TRIPOS>ATOM
      1 C1           0.0000     0.0000     0.0000 c3         1 8I1       0.244700
      2 N1          -0.1240    -0.0000     7.2870 nb         1 8I1      -0.599000
      3 O1           1.4280     0.0000     0.0000 os         1 8I1      -0.280900
      4 C2           2.0460     0.0010     1.2120 ca         1 8I1       0.160100
      5 N2           3.9520     0.0000     4.8810 nb         1 8I1      -0.548000
      6 C3           1.2910     0.0020     2.3660 ca         1 8I1      -0.203000
      7 O3          -5.0070    -0.0040     8.6800 os         1 8I1      -0.331900
      8 C4           1.9260     0.0020     3.6080 ca         1 8I1      -0.129300
      9 N4          -4.4100    -0.0000     5.1390 nb         1 8I1      -0.524000
     10 C5           1.1710     0.0020     4.8610 ca         1 8I1       0.026000
     11 N5          -6.6370    -1.2630    10.7160 nz         1 8I1       0.018400
     12 C6          -0.2210     0.0010     4.9170 ca         1 8I1      -0.192300
     13 C7          -0.8360     0.0000     6.1630 cp         1 8I1       0.421800
     14 C8           1.1970     0.0000     7.2910 ca         1 8I1       0.539200
     15 C9           1.9050     0.0020     6.0740 ca         1 8I1      -0.272600
     16 C10          3.3110     0.0020     6.0180 ca         1 8I1       0.425200
     17 C11          3.3390     0.0020     3.6850 ca         1 8I1       0.354600
     18 C12          4.0860     0.0010     2.4990 ca         1 8I1      -0.225300
     19 C13          3.4440     0.0010     1.2810 ca         1 8I1       0.153100
     20 C14          5.5970     0.0010     0.2730 c3         1 8I1       0.242700
     21 C15         -2.3180    -0.0010     6.2210 cp         1 8I1      -0.200800
     22 C16         -2.9550    -0.0020     7.4660 ca         1 8I1      -0.073000
     23 C17         -4.3420    -0.0020     7.4940 ca         1 8I1      -0.008200
     24 C18         -5.0440    -0.0010     6.2960 ca         1 8I1       0.308200
     25 C19         -3.0950     0.0000     5.0650 ca         1 8I1       0.388200
     26 C20         -6.4340    -0.0040     8.6250 c3         1 8I1       0.175400
     27 C21         -7.0000    -0.0060    10.0460 c3         1 8I1       0.027500
     28 C22         -8.5240     0.1190     9.9880 c3         1 8I1      -0.131100
     29 C23         -9.0720     0.2410    11.3870 ca         1 8I1      -0.104300
     30 C24         -9.2220     1.4880    11.9640 ca         1 8I1      -0.141500
     31 C25         -9.7240     1.6000    13.2470 ca         1 8I1      -0.064500
     32 C26        -10.0760     0.4640    13.9530 ca         1 8I1      -0.072000
     33 C27         -9.9260    -0.7830    13.3760 ca         1 8I1      -0.064500
     34 C28         -9.4290    -0.8940    12.0900 ca         1 8I1      -0.141500
     35 H1          -0.3610    -0.9340     0.4140 h1         1 8I1      -0.000300
     36 H1A         -0.3610     0.1090    -1.0160 h1         1 8I1      -0.000300
     37 H1B         -0.3610     0.8250     0.6020 h1         1 8I1      -0.000300
     38 H3           0.4290    -0.6550     2.3650 ha         1 8I1       0.130000
     39 HN3          2.1230    -0.8660     8.9330 hn         1 8I1       0.283300
     40 HN3A         2.1230     0.8670     8.9320 hn         1 8I1       0.283300
     41 H6          -0.8110     0.0010     4.0080 ha         1 8I1       0.130000
     42 H10          3.8760     0.0020     6.9420 h4         1 8I1      -0.010900
     43 H12          5.1360     0.0040     2.7670 ha         1 8I1       0.151000
     44 H14          5.9560     0.8860     0.7840 h1         1 8I1       0.002367
     45 H14A         5.9960    -0.0210    -0.7340 h1         1 8I1       0.002367
     46 H14B         5.9210    -0.8830     0.8090 h1         1 8I1       0.002367
     47 H16         -2.3940     0.2400     8.3610 ha         1 8I1       0.145000
     48 H18         -6.1270    -0.0020     6.3120 h4         1 8I1      -0.017900
     49 H19         -2.6130     0.0010     4.0950 h4         1 8I1      -0.000900
     50 H20         -6.7750    -0.8880     8.0990 h1         1 8I1       0.041700
     51 H20A        -6.7750     0.8810     8.1020 h1         1 8I1       0.041700
     52 H21         -6.5900     0.8300    10.6000 hx         1 8I1       0.079700
     53 H22         -9.0400     0.5660     9.1470 hc         1 8I1       0.091200
     54 H22A        -7.9230     0.9410    10.3570 hc         1 8I1       0.091200
     55 H24         -8.9760     2.3790    11.4000 ha         1 8I1       0.124500
     56 H25         -9.8650     2.5780    13.6910 ha         1 8I1       0.122000
     57 H26        -10.4670     0.5510    14.9590 ha         1 8I1       0.123000
     58 H27        -10.2100    -1.6720    13.9260 ha         1 8I1       0.122000
     59 H28         -9.8000    -1.8120    11.6500 ha         1 8I1       0.124500
     60 O2           4.1740     0.0000     0.1350 os         1 8I1      -0.287900
     61 N3           1.8840     0.0010     8.4930 nv         1 8I1      -0.656500
     62 HN5         -5.7570    -1.5850    10.3650 hn         1 8I1       0.237133
     63 H52         -7.3400    -1.9520    10.5360 hn         1 8I1       0.237133
     64 HN5A        -6.5670    -1.1070    11.7020 hn         1 8I1       0.237133
@<TRIPOS>BOND
     1     1     3 1   
     2     1    35 1   
     3     1    36 1   
     4     1    37 1   
     5     2    13 ar  
     6     2    14 ar  
     7     3     4 1   
     8     4     6 ar  
     9     4    19 ar  
    10     5    16 ar  
    11     5    17 ar  
    12     6     8 ar  
    13     6    38 1   
    14     7    23 1   
    15     7    26 1   
    16     8    10 ar  
    17     8    17 ar  
    18     9    24 ar  
    19     9    25 ar  
    20    10    12 ar  
    21    10    15 ar  
    22    11    27 1   
    23    11    62 1   
    24    11    63 1   
    25    11    64 1   
    26    12    13 ar  
    27    12    41 1   
    28    13    21 1   
    29    14    15 ar  
    30    14    61 1   
    31    15    16 ar  
    32    16    42 1   
    33    17    18 ar  
    34    18    19 ar  
    35    18    43 1   
    36    19    60 1   
    37    20    44 1   
    38    20    45 1   
    39    20    46 1   
    40    20    60 1   
    41    21    22 ar  
    42    21    25 ar  
    43    22    23 ar  
    44    22    47 1   
    45    23    24 ar  
    46    24    48 1   
    47    25    49 1   
    48    26    27 1   
    49    26    50 1   
    50    26    51 1   
    51    27    28 1   
    52    27    52 1   
    53    28    29 1   
    54    28    53 1   
    55    28    54 1   
    56    29    30 ar  
    57    29    34 ar  
    58    30    31 ar  
    59    30    55 1   
    60    31    32 ar  
    61    31    56 1   
    62    32    33 ar  
    63    32    57 1   
    64    33    34 ar  
    65    33    58 1   
    66    34    59 1   
    67    39    61 1   
    68    40    61 1   
@<TRIPOS>SUBSTRUCTURE
     1 8I1         1 TEMP              0 ****  ****    0 ROOT
