@<TRIPOS>MOLECULE
molecule
   64    68     1     0     0
SMALL
bcc


@<TRIPOS>ATOM
      1 C1           0.0000     0.0000     0.0000 c3         1 8I1       0.127700
      2 N1          -0.1240    -0.0000     7.2870 nb         1 8I1      -0.732000
      3 O1           1.4280     0.0000     0.0000 os         1 8I1      -0.298900
      4 C2           2.0460     0.0010     1.2120 ca         1 8I1       0.151100
      5 N2           3.9520     0.0000     4.8810 nb         1 8I1      -0.676000
      6 C3           1.2910     0.0020     2.3660 ca         1 8I1      -0.208000
      7 O3          -5.0070    -0.0040     8.6800 os         1 8I1      -0.358900
      8 C4           1.9260     0.0020     3.6080 ca         1 8I1      -0.145300
      9 N4          -4.4100    -0.0000     5.1390 nb         1 8I1      -0.643000
     10 C5           1.1710     0.0020     4.8610 ca         1 8I1       0.030000
     11 N5          -6.6370    -1.2630    10.7160 nz         1 8I1      -0.818600
     12 C6          -0.2210     0.0010     4.9170 ca         1 8I1      -0.226300
     13 C7          -0.8360     0.0000     6.1630 cp         1 8I1       0.478800
     14 C8           1.1970     0.0000     7.2910 ca         1 8I1       0.725200
     15 C9           1.9050     0.0020     6.0740 ca         1 8I1      -0.288600
     16 C10          3.3110     0.0020     6.0180 ca         1 8I1       0.462200
     17 C11          3.3390     0.0020     3.6850 ca         1 8I1       0.409600
     18 C12          4.0860     0.0010     2.4990 ca         1 8I1      -0.240300
     19 C13          3.4440     0.0010     1.2810 ca         1 8I1       0.149100
     20 C14          5.5970     0.0010     0.2730 c3         1 8I1       0.123700
     21 C15         -2.3180    -0.0010     6.2210 cp         1 8I1      -0.211800
     22 C16         -2.9550    -0.0020     7.4660 ca         1 8I1      -0.079000
     23 C17         -4.3420    -0.0020     7.4940 ca         1 8I1      -0.026200
     24 C18         -5.0440    -0.0010     6.2960 ca         1 8I1       0.344200
     25 C19         -3.0950     0.0000     5.0650 ca         1 8I1       0.416200
     26 C20         -6.4340    -0.0040     8.6250 c3         1 8I1       0.105400
     27 C21         -7.0000    -0.0060    10.0460 c3         1 8I1       0.181500
     28 C22         -8.5240     0.1190     9.9880 c3         1 8I1      -0.179100
     29 C23         -9.0720     0.2410    11.3870 ca         1 8I1      -0.107300
     30 C24         -9.2220     1.4880    11.9640 ca         1 8I1      -0.159000
     31 C25         -9.7240     1.6000    13.2470 ca         1 8I1      -0.103500
     32 C26        -10.0760     0.4640    13.9530 ca         1 8I1      -0.102000
     33 C27         -9.9260    -0.7830    13.3760 ca         1 8I1      -0.103500
     34 C28         -9.4290    -0.8940    12.0900 ca         1 8I1      -0.159000
     35 H1          -0.3610    -0.9340     0.4140 h1         1 8I1       0.044700
     36 H1A         -0.3610     0.1090    -1.0160 h1         1 8I1       0.044700
     37 H1B         -0.3610     0.8250     0.6020 h1         1 8I1       0.044700
     38 H3           0.4290    -0.6550     2.3650 ha         1 8I1       0.146000
     39 HN3          2.1230    -0.8660     8.9330 hn         1 8I1       0.444300
     40 HN3A         2.1230     0.8670     8.9320 hn         1 8I1       0.444300
     41 H6          -0.8110     0.0010     4.0080 ha         1 8I1       0.147000
     42 H10          3.8760     0.0020     6.9420 h4         1 8I1       0.036100
     43 H12          5.1360     0.0040     2.7670 ha         1 8I1       0.178000
     44 H14          5.9560     0.8860     0.7840 h1         1 8I1       0.048367
     45 H14A         5.9960    -0.0210    -0.7340 h1         1 8I1       0.048367
     46 H14B         5.9210    -0.8830     0.8090 h1         1 8I1       0.048367
     47 H16         -2.3940     0.2400     8.3610 ha         1 8I1       0.179000
     48 H18         -6.1270    -0.0020     6.3120 h4         1 8I1       0.016100
     49 H19         -2.6130     0.0010     4.0950 h4         1 8I1       0.042100
     50 H20         -6.7750    -0.8880     8.0990 h1         1 8I1       0.079700
     51 H20A        -6.7750     0.8810     8.1020 h1         1 8I1       0.079700
     52 H21         -6.5900     0.8300    10.6000 hx         1 8I1       0.104700
     53 H22         -9.0400     0.5660     9.1470 hc         1 8I1       0.120200
     54 H22A        -7.9230     0.9410    10.3570 hc         1 8I1       0.120200
     55 H24         -8.9760     2.3790    11.4000 ha         1 8I1       0.147500
     56 H25         -9.8650     2.5780    13.6910 ha         1 8I1       0.154000
     57 H26        -10.4670     0.5510    14.9590 ha         1 8I1       0.156000
     58 H27        -10.2100    -1.6720    13.9260 ha         1 8I1       0.154000
     59 H28         -9.8000    -1.8120    11.6500 ha         1 8I1       0.147500
     60 O2           4.1740     0.0000     0.1350 os         1 8I1      -0.304900
     61 N3           1.8840     0.0010     8.4930 nv         1 8I1      -1.083500
     62 HN5         -5.7570    -1.5850    10.3650 hn         1 8I1       0.457800
     63 H52         -7.3400    -1.9520    10.5360 hn         1 8I1       0.457800
     64 HN5A        -6.5670    -1.1070    11.7020 hn         1 8I1       0.457800
@<TRIPOS>BOND
     1     1     3 1   
     2     2    13 ar  
     3     2    14 ar  
     4     3     4 1   
     5     4     6 ar  
     6     4    19 ar  
     7     5    16 ar  
     8     5    17 ar  
     9    60    19 1   
    10    60    20 1   
    11     6     8 ar  
    12    61    14 1   
    13     7    23 1   
    14     7    26 1   
    15     8    10 ar  
    16     8    17 ar  
    17     9    24 ar  
    18     9    25 ar  
    19    10    12 ar  
    20    10    15 ar  
    21    11    27 1   
    22    12    13 ar  
    23    13    21 1   
    24    14    15 ar  
    25    15    16 ar  
    26    17    18 ar  
    27    18    19 ar  
    28    21    22 ar  
    29    21    25 ar  
    30    22    23 ar  
    31    23    24 ar  
    32    26    27 1   
    33    27    28 1   
    34    28    29 1   
    35    29    30 ar  
    36    29    34 ar  
    37    30    31 ar  
    38    31    32 ar  
    39    32    33 ar  
    40    33    34 ar  
    41     1    35 1   
    42     1    36 1   
    43     1    37 1   
    44     6    38 1   
    45    61    39 1   
    46    61    40 1   
    47    11    62 1   
    48    11    64 1   
    49    12    41 1   
    50    16    42 1   
    51    18    43 1   
    52    20    44 1   
    53    20    45 1   
    54    20    46 1   
    55    22    47 1   
    56    24    48 1   
    57    25    49 1   
    58    26    50 1   
    59    26    51 1   
    60    27    52 1   
    61    28    53 1   
    62    28    54 1   
    63    30    55 1   
    64    31    56 1   
    65    32    57 1   
    66    33    58 1   
    67    34    59 1   
    68    63    11 1   
@<TRIPOS>SUBSTRUCTURE
     1 8I1         1 TEMP              0 ****  ****    0 ROOT
