@<TRIPOS>MOLECULE
molecule
   17    18     1     0     0
SMALL
bcc


@<TRIPOS>ATOM
      1 I            0.0000     0.0000     0.0000 i          1 8IG      -0.027800
      2 O6           5.3860    -0.0010    -2.6240 o          1 8IG      -0.517500
      3 C8           2.0950     0.0000     0.0000 cc         1 8IG       0.574300
      4 N9           2.8800     0.0000     1.1170 na         1 8IG      -0.245900
      5 N1           6.5220     0.0040    -0.6980 ns         1 8IG      -0.466400
      6 C2           6.4940    -0.0000     0.6640 cc         1 8IG       0.462800
      7 N3           5.3640    -0.0000     1.3350 nd         1 8IG      -0.554100
      8 C4           4.1850    -0.0000     0.7020 cd         1 8IG       0.024800
      9 C5           4.1470    -0.0000    -0.6960 cd         1 8IG       0.308800
     10 C6           5.3710    -0.0000    -1.4050 c          1 8IG       0.623000
     11 N7           2.8420    -0.0000    -1.0640 nd         1 8IG      -0.583000
     12 HN9          2.5620     0.1130     2.0590 hn         1 8IG       0.337700
     13 HN21         8.2130    -0.8080     1.1030 hn         1 8IG       0.479800
     14 HN22         7.4920    -0.0180     2.3390 hn         1 8IG       0.479800
     15 HN11         7.4010     0.0100    -1.1780 hn         1 8IG       0.352500
     16 N2           7.6790    -0.0000     1.3560 nz         1 8IG      -0.728600
     17 H23          8.1970     0.8260     1.1300 hn         1 8IG       0.479800
@<TRIPOS>BOND
     1     1     3 1
     2     2    10 2
     3     3     4 1
     4     3    11 2
     5     4     8 1
     6     4    12 1
     7    16     6 1
     8    16    13 1
     9    16    14 1
    10     5     6 1
    11     5    10 1
    12     5    15 1
    13     6     7 2
    14     7     8 1
    15     8     9 2
    16     9    10 1
    17     9    11 1
    18    17    16 1
@<TRIPOS>SUBSTRUCTURE
     1 8IG         1 TEMP              0 ****  ****    0 ROOT
