@<TRIPOS>MOLECULE
molecule
   53    55     1     0     0
SMALL
bcc


@<TRIPOS>ATOM
      1 C1           0.0000     0.0000     0.0000 ca         1 8IN      -0.185000
      2 C2           1.3760     0.0000     0.0000 ca         1 8IN      -0.108000
      3 C3           2.0710     0.0000     1.2050 ca         1 8IN      -0.074200
      4 C4           1.3580    -0.0010     2.4160 ca         1 8IN      -0.045800
      5 C5          -0.0390    -0.0020     2.4040 ca         1 8IN      -0.154000
      6 C6          -0.7090    -0.0000     1.1970 ca         1 8IN       0.137100
      7 N7           3.4130    -0.0010     1.5240 na         1 8IN      -0.056400
      8 C8           3.5670    -0.0010     2.8820 cc         1 8IN      -0.017300
      9 C9           2.3650    -0.0070     3.4800 cd         1 8IN      -0.178400
     10 C10          2.1020    -0.0180     4.9630 c3         1 8IN      -0.019200
     11 C11          2.0140    -1.4400     5.4480 c          1 8IN       0.276100
     12 O12          2.1520    -2.3570     4.6670 o          1 8IN      -0.491100
     13 N13          1.7820    -1.6940     6.7510 nz         1 8IN      -0.629400
     14 C14          4.8910    -0.0030     3.6020 c3         1 8IN      -0.032900
     15 C15          4.5100    -0.0010     0.5520 c3         1 8IN       0.100600
     16 C16          4.8840    -1.4220     0.2180 ca         1 8IN      -0.096300
     17 C17          4.2620    -2.0720    -0.8310 ca         1 8IN      -0.113500
     18 C18          4.6060    -3.3750    -1.1370 ca         1 8IN      -0.134000
     19 C19          5.5720    -4.0270    -0.3960 ca         1 8IN      -0.125000
     20 C20          6.1950    -3.3770     0.6530 ca         1 8IN      -0.134000
     21 C21          5.8540    -2.0720     0.9570 ca         1 8IN      -0.113500
     22 O22         -2.0690    -0.0010     1.1790 os         1 8IN      -0.294900
     23 C23         -2.4640     0.0000    -0.1940 c3         1 8IN       0.099400
     24 C24         -3.9910     0.0020    -0.2870 c3         1 8IN      -0.047400
     25 C25         -4.4140     0.0020    -1.7560 c3         1 8IN      -0.257600
     26 P26         -6.2340     0.0030    -1.8660 p5         1 8IN       1.059700
     27 O27         -6.6780     0.0030    -3.4120 o          1 8IN      -0.774167
     28 O28         -6.8140    -1.3120    -1.1420 o          1 8IN      -0.774167
     29 O29         -6.7670     1.2100    -1.1990 o          1 8IN      -0.774167
     30 H1          -0.5360     0.0010    -0.9410 ha         1 8IN       0.169000
     31 H2           1.9180     0.0000    -0.9380 ha         1 8IN       0.120000
     32 H5          -0.5920    -0.0020     3.3350 ha         1 8IN       0.130000
     33 H101         1.1680     0.4920     5.1670 hc         1 8IN       0.053200
     34 H102         2.9090     0.4900     5.4770 hc         1 8IN       0.053200
     35 H131         1.8290    -2.6810     6.9110 hn         1 8IN       0.421800
     36 H132         0.8720    -1.3590     6.9990 hn         1 8IN       0.421800
     37 H141         4.8160     0.6020     4.4980 hc         1 8IN       0.043700
     38 H142         5.6560     0.4050     2.9530 hc         1 8IN       0.043700
     39 H143         5.1530    -1.0190     3.8740 hc         1 8IN       0.043700
     40 H151         5.3670     0.5080     0.9750 h1         1 8IN       0.062200
     41 H152         4.1940     0.5110    -0.3490 h1         1 8IN       0.062200
     42 H17          3.5470    -1.5420    -1.4480 ha         1 8IN       0.136000
     43 H18          4.1160    -3.8850    -1.9580 ha         1 8IN       0.130500
     44 H19          5.8390    -5.0500    -0.6340 ha         1 8IN       0.127000
     45 H20          6.9290    -3.8990     1.2550 ha         1 8IN       0.130500
     46 H21          6.7700    -1.7110     1.4090 ha         1 8IN       0.136000
     47 H231        -2.0730    -0.8850    -0.6820 h1         1 8IN       0.029700
     48 H232        -2.0710     0.8840    -0.6820 h1         1 8IN       0.029700
     49 H241        -4.3830    -0.8820     0.2020 hc         1 8IN       0.063200
     50 H242        -4.3810     0.8870     0.2010 hc         1 8IN       0.063200
     51 H251        -4.0220     0.8850    -2.2440 hc         1 8IN       0.033200
     52 H252        -4.0230    -0.8830    -2.2440 hc         1 8IN       0.033200
     53 H133         2.4640    -1.2220     7.3100 hn         1 8IN       0.421800
@<TRIPOS>BOND
     1     1     2 ar  
     2     1     6 ar  
     3     1    30 1   
     4     2     3 ar  
     5     2    31 1   
     6     3     4 ar  
     7     3     7 1   
     8     4     5 ar  
     9     4     9 1   
    10     5     6 ar  
    11     5    32 1   
    12     6    22 1   
    13     7     8 1   
    14     7    15 1   
    15     8     9 2   
    16     8    14 1   
    17     9    10 1   
    18    10    11 1   
    19    10    33 1   
    20    10    34 1   
    21    11    12 2   
    22    11    13 1   
    23    13    35 1   
    24    13    36 1   
    25    14    37 1   
    26    14    38 1   
    27    14    39 1   
    28    15    16 1   
    29    15    40 1   
    30    15    41 1   
    31    16    17 ar  
    32    16    21 ar  
    33    17    18 ar  
    34    17    42 1   
    35    18    19 ar  
    36    18    43 1   
    37    19    20 ar  
    38    19    44 1   
    39    20    21 ar  
    40    20    45 1   
    41    21    46 1   
    42    22    23 1   
    43    23    24 1   
    44    23    47 1   
    45    23    48 1   
    46    24    25 1   
    47    24    49 1   
    48    24    50 1   
    49    25    26 1   
    50    25    51 1   
    51    25    52 1   
    52    26    27 1   
    53    26    28 1   
    54    26    29 1   
    55    53    13 1   
@<TRIPOS>SUBSTRUCTURE
     1 8IN         1 TEMP              0 ****  ****    0 ROOT
