@<TRIPOS>MOLECULE
8IN
   52    54     1     0     0
SMALL
bcc


@<TRIPOS>ATOM
      1 C1          0.3460    0.3240   -0.2530 ca        1 8IN     -0.197000
      2 C2          1.7300    0.3270   -0.1660 ca        1 8IN     -0.113000
      3 C3          2.3210    0.2600    1.1000 ca        1 8IN     -0.112200
      4 C4          1.5050    0.2060    2.2870 ca        1 8IN     -0.049800
      5 C5          0.1210    0.2200    2.1890 ca        1 8IN     -0.181000
      6 C6         -0.4630    0.2640    0.9070 ca        1 8IN      0.169100
      7 N7          3.6830    0.3030    1.4900 na        1 8IN     -0.069400
      8 C8          3.7200    0.1430    2.8980 cc        1 8IN     -0.045300
      9 C9          2.4240    0.1370    3.4130 cd        1 8IN     -0.154400
     10 C10         2.0270    0.0960    4.8250 c3        1 8IN     -0.075200
     11 C11         1.7530   -1.3190    5.3150 c         1 8IN      0.661100
     12 O12         2.3170   -1.7680    6.3390 o         1 8IN     -0.662100
     13 N13         0.8450   -2.0760    4.6280 n         1 8IN     -0.658000
     14 C14         4.9870    0.0620    3.6510 c3        1 8IN     -0.043900
     15 C15         4.7640   -0.0760    0.6260 c3        1 8IN      0.085600
     16 C16         5.0190   -1.5490    0.4580 ca        1 8IN     -0.115300
     17 C17         4.0100   -2.3920   -0.0220 ca        1 8IN     -0.115000
     18 C18         4.2640   -3.7490   -0.2090 ca        1 8IN     -0.133500
     19 C19         5.5240   -4.2720    0.0790 ca        1 8IN     -0.132000
     20 C20         6.5310   -3.4360    0.5600 ca        1 8IN     -0.133500
     21 C21         6.2790   -2.0780    0.7530 ca        1 8IN     -0.115000
     22 O22        -1.8240    0.2450    0.8890 os        1 8IN     -0.316900
     23 C23        -2.4640    0.1990   -0.4110 c3        1 8IN      0.129400
     24 C24        -3.9580    0.0430   -0.1870 c3        1 8IN     -0.056400
     25 C25        -4.6730   -0.0380   -1.4860 c3        1 8IN     -0.275600
     26 P26        -6.4190   -0.2710   -0.9690 p5        1 8IN      1.211700
     27 O27        -6.6990    0.9750   -0.1590 o         1 8IN     -0.953500
     28 O28        -7.1530   -0.3660   -2.2850 o         1 8IN     -0.953500
     29 O29        -6.3600   -1.5520   -0.1660 o         1 8IN     -0.953500
     30 H1         -0.1310    0.3710   -1.2440 ha        1 8IN      0.153000
     31 H2          2.3430    0.3820   -1.0760 ha        1 8IN      0.119000
     32 H5         -0.5250    0.2110    3.0770 ha        1 8IN      0.150000
     33 H101        2.8300    0.5290    5.4790 hc        1 8IN      0.072200
     34 H102        1.0930    0.7060    4.9730 hc        1 8IN      0.072200
     35 H131        0.4510   -1.7430    3.7810 hn        1 8IN      0.320500
     36 H132        0.6550   -3.0020    4.9140 hn        1 8IN      0.320500
     37 H141        4.7760   -0.2050    4.7160 hc        1 8IN      0.048033
     38 H142        5.6610   -0.7190    3.2140 hc        1 8IN      0.048033
     39 H143        5.5220    1.0450    3.6260 hc        1 8IN      0.048033
     40 H151        5.6980    0.4170    1.0270 h1        1 8IN      0.057700
     41 H152        4.5460    0.3580   -0.3940 h1        1 8IN      0.057700
     42 H17         3.0110   -1.9760   -0.2390 ha        1 8IN      0.141500
     43 H18         3.4640   -4.4080   -0.5800 ha        1 8IN      0.129000
     44 H19         5.7230   -5.3440   -0.0690 ha        1 8IN      0.124000
     45 H20         7.5230   -3.8470    0.7930 ha        1 8IN      0.129000
     46 H21         7.0720   -1.4240    1.1430 ha        1 8IN      0.141500
     47 H231       -2.0500   -0.6740   -0.9810 h1        1 8IN      0.013200
     48 H232       -2.2250    1.1520   -0.9490 h1        1 8IN      0.013200
     49 H241       -4.3710    0.9100    0.3960 hc        1 8IN      0.083200
     50 H242       -4.1790   -0.8890    0.4000 hc        1 8IN      0.083200
     51 H251       -4.6050    0.8890   -2.0840 hc        1 8IN      0.015700
     52 H252       -4.3730   -0.9080   -2.0990 hc        1 8IN      0.015700
@<TRIPOS>BOND
     1    1    2 ar  
     2    1    6 ar  
     3    1   30 1   
     4    2    3 ar  
     5    2   31 1   
     6    3    4 ar  
     7    3    7 1   
     8    4    5 ar  
     9    4    9 1   
    10    5    6 ar  
    11    5   32 1   
    12    6   22 1   
    13    7    8 1   
    14    7   15 1   
    15    8    9 2   
    16    8   14 1   
    17    9   10 1   
    18   10   11 1   
    19   10   33 1   
    20   10   34 1   
    21   11   12 2   
    22   11   13 1   
    23   13   35 1   
    24   13   36 1   
    25   14   37 1   
    26   14   38 1   
    27   14   39 1   
    28   15   16 1   
    29   15   40 1   
    30   15   41 1   
    31   16   17 ar  
    32   16   21 ar  
    33   17   18 ar  
    34   17   42 1   
    35   18   19 ar  
    36   18   43 1   
    37   19   20 ar  
    38   19   44 1   
    39   20   21 ar  
    40   20   45 1   
    41   21   46 1   
    42   22   23 1   
    43   23   24 1   
    44   23   47 1   
    45   23   48 1   
    46   24   25 1   
    47   24   49 1   
    48   24   50 1   
    49   25   26 1   
    50   25   51 1   
    51   25   52 1   
    52   26   27 1   
    53   26   28 1   
    54   26   29 1   
@<TRIPOS>SUBSTRUCTURE
     1 8IN         1 TEMP              0 ****  ****    0 ROOT
