@<TRIPOS>MOLECULE
molecule
   37    39     1     0     0
SMALL
bcc


@<TRIPOS>ATOM
      1 N1           0.0000     0.0000     0.0000 nv         1 8IP      -1.091500
      2 C2           1.4180     0.0000     0.0000 ca         1 8IP       0.573200
      3 N3           2.0460     0.0000     1.1980 nb         1 8IP      -0.630000
      4 C4           3.3970     0.0000     1.1670 ca         1 8IP       0.341200
      5 C5           4.1470     0.0020     0.0010 ca         1 8IP      -0.205300
      6 C6           3.4650     0.0010    -1.2100 ca         1 8IP      -0.185000
      7 C7           2.0650     0.0010    -1.2380 ca         1 8IP       0.095300
      8 N8           1.3840     0.0040    -2.4460 nu         1 8IP      -0.804600
      9 C9           2.0320     0.0060    -3.7320 c3         1 8IP       0.288100
     10 C10          1.0570     0.0690    -4.8590 ca         1 8IP      -0.113300
     11 C11          0.5540    -1.1090    -5.4110 ca         1 8IP      -0.107000
     12 C12         -0.3580    -1.0520    -6.4650 ca         1 8IP      -0.129000
     13 C13         -0.7680     0.1830    -6.9660 ca         1 8IP      -0.108000
     14 C14         -0.2650     1.3620    -6.4140 cp         1 8IP      -0.037000
     15 C15          0.6470     1.3040    -5.3600 ca         1 8IP      -0.099000
     16 C16         -0.6900     2.6430    -6.9340 cp         1 8IP      -0.155300
     17 C17         -0.7460     3.7630    -6.1150 ca         1 8IP      -0.083000
     18 C18         -1.1570     4.9820    -6.6430 ca         1 8IP      -0.244300
     19 C19         -1.4990     5.0240    -7.9860 ca         1 8IP       0.396200
     20 N20         -1.4570     3.9550    -8.8120 nb         1 8IP      -0.651000
     21 C21         -1.0530     2.7880    -8.2620 ca         1 8IP       0.405200
     22 HN11        -0.5000    -0.8670     0.0230 hn         1 8IP       0.428300
     23 HN12        -0.5000     0.8670     0.0240 hn         1 8IP       0.428300
     24 H4           3.9270     0.0000     2.1120 h4         1 8IP       0.015100
     25 H5           5.2290     0.0020     0.0340 ha         1 8IP       0.140000
     26 H6           4.0210     0.0020    -2.1400 ha         1 8IP       0.132000
     27 HN8          0.3830     0.0040    -2.4220 hn         1 8IP       0.443800
     28 H91          2.6210    -0.8980    -3.8290 h1         1 8IP       0.040700
     29 H92          2.6920     0.8630    -3.7910 h1         1 8IP       0.040700
     30 H11          0.8720    -2.0690    -5.0220 ha         1 8IP       0.138000
     31 H12         -0.7490    -1.9670    -6.8940 ha         1 8IP       0.137000
     32 H13         -1.4760     0.2270    -7.7840 ha         1 8IP       0.138000
     33 H15          1.0380     2.2190    -4.9320 ha         1 8IP       0.139000
     34 H17         -0.4700     3.6870    -5.0700 ha         1 8IP       0.138000
     35 H18         -1.2090     5.8700    -6.0250 ha         1 8IP       0.145000
     36 H19         -1.8200     5.9730    -8.3980 h4         1 8IP       0.019100
     37 H21         -1.0090     1.9140    -8.9000 h4         1 8IP       0.021100
@<TRIPOS>BOND
     1     1     2 1   
     2     1    22 1   
     3     1    23 1   
     4     2     3 ar  
     5     2     7 ar  
     6     3     4 ar  
     7     4     5 ar  
     8     4    24 1   
     9     5     6 ar  
    10     5    25 1   
    11     6     7 ar  
    12     6    26 1   
    13     7     8 1   
    14     8     9 1   
    15     8    27 1   
    16     9    10 1   
    17     9    28 1   
    18     9    29 1   
    19    10    15 ar  
    20    10    11 ar  
    21    11    12 ar  
    22    11    30 1   
    23    12    13 ar  
    24    12    31 1   
    25    13    14 ar  
    26    13    32 1   
    27    14    16 1   
    28    14    15 ar  
    29    15    33 1   
    30    16    21 ar  
    31    16    17 ar  
    32    17    18 ar  
    33    17    34 1   
    34    18    19 ar  
    35    18    35 1   
    36    19    20 ar  
    37    19    36 1   
    38    20    21 ar  
    39    21    37 1   
@<TRIPOS>SUBSTRUCTURE
     1 8IP         1 TEMP              0 ****  ****    0 ROOT
