@<TRIPOS>MOLECULE
8IR
   52    55     1     0     0
SMALL
bcc


@<TRIPOS>ATOM
      1 Cl           0.0000     0.0000     0.0000 cl         1 8IR       0.017600
      2 CBB          1.7360     0.0000     0.0000 ca         1 8IR      -0.055600
      3 CBD          2.4280     0.0000     1.1960 ca         1 8IR      -0.095000
      4 CBE          3.8110     0.0010     1.1960 ca         1 8IR      -0.079000
      5 CBF          4.5050     0.0030    -0.0000 ca         1 8IR      -0.093000
      6 CBG          3.8190     0.0040    -1.1990 ca         1 8IR      -0.074000
      7 CBA          2.4310    -0.0030    -1.2040 ca         1 8IR      -0.099400
      8 NAT          1.7330    -0.0100    -2.4180 n          1 8IR       0.047500
      9 C4           1.2170    -1.2000    -2.9180 ca         1 8IR       0.405200
     10 N3           0.7230    -1.2560    -4.1510 nb         1 8IR      -0.611000
     11 C2           0.2350    -2.3830    -4.6290 ca         1 8IR       0.655900
     12 N1           0.2140    -3.4900    -3.9150 nb         1 8IR      -0.661000
     13 C6           0.6890    -3.5130    -2.6770 ca         1 8IR       0.469200
     14 C5           1.2160    -2.3560    -2.1370 ca         1 8IR      -0.401600
     15 CAR          1.5610     1.1400    -3.1010 c          1 8IR       0.585700
     16 OAS          0.8060     1.1730    -4.0530 o          1 8IR      -0.555100
     17 CAO          2.2870     2.3570    -2.6930 ca         1 8IR      -0.178600
     18 CAP          2.7300     3.2660    -3.6580 ca         1 8IR      -0.055500
     19 CAQ          3.4070     4.4010    -3.2730 ca         1 8IR      -0.134000
     20 CAN          2.5290     2.6070    -1.3380 ca         1 8IR      -0.055500
     21 CAM          3.2070     3.7440    -0.9610 ca         1 8IR      -0.134000
     22 CAL          3.6510     4.6440    -1.9250 ca         1 8IR      -0.061400
     23 NAA          4.3370     5.7930    -1.5390 ns         1 8IR      -0.041100
     24 CAB          4.2190     6.9240    -2.2640 c          1 8IR       0.593700
     25 OAC          3.4040     6.9860    -3.1640 o          1 8IR      -0.628100
     26 CAD          5.0770     8.0860    -1.9640 ca         1 8IR      -0.213600
     27 CAE          4.9560     9.2590    -2.7130 ca         1 8IR      -0.012000
     28 CAF          5.7600    10.3410    -2.4300 ca         1 8IR      -0.188500
     29 CAG          6.6900    10.2680    -1.4010 ca         1 8IR       0.179100
     30 OAH          7.4790    11.3370    -1.1240 os         1 8IR      -0.302900
     31 CAI          8.4140    11.1930    -0.0530 c3         1 8IR       0.243700
     32 CAJ          6.8130     9.1030    -0.6520 ca         1 8IR      -0.188500
     33 CAK          6.0100     8.0180    -0.9250 ca         1 8IR      -0.012000
     34 HBD          1.8870    -0.0010     2.1350 ha         1 8IR       0.121000
     35 HBE          4.3510     0.0010     2.1340 ha         1 8IR       0.110000
     36 HBF          5.5880     0.0060     0.0030 ha         1 8IR       0.111000
     37 HBG          4.3650     0.0030    -2.1350 ha         1 8IR       0.122000
     38 H5           1.6110    -2.3440    -1.1280 ha         1 8IR       0.134000
     39 H2          -0.1610    -2.4000    -5.6370 h5         1 8IR       0.002100
     40 H6           0.6690    -4.4290    -2.0990 h4         1 8IR      -0.016900
     41 HAP          2.5400     3.0770    -4.7070 ha         1 8IR       0.129000
     42 HAN          2.1840     1.9060    -0.5870 ha         1 8IR       0.129000
     43 HAQ          3.7520     5.1040    -4.0210 ha         1 8IR       0.125500
     44 HAM          3.3970     3.9370     0.0880 ha         1 8IR       0.125500
     45 HAA          4.8980     5.7870    -0.7100 hn         1 8IR       0.173500
     46 HAE          4.2310     9.3170    -3.5160 ha         1 8IR       0.113000
     47 HAK          6.1060     7.1110    -0.3410 ha         1 8IR       0.113000
     48 HAF          5.6660    11.2510    -3.0110 ha         1 8IR       0.123500
     49 HAJ          7.5380     9.0510     0.1520 ha         1 8IR       0.123500
     50 HAI1         8.9770    12.1120     0.0610 h1         1 8IR      -0.000967
     51 HAI2         9.0930    10.3780    -0.2720 h1         1 8IR      -0.000967
     52 HAI3         7.8800    10.9810     0.8660 h1         1 8IR      -0.000967
@<TRIPOS>BOND
     1     1     2 1   
     2     2     3 ar  
     3     2     7 ar  
     4     3     4 ar  
     5     3    34 1   
     6     4     5 ar  
     7     4    35 1   
     8     5     6 ar  
     9     5    36 1   
    10     6     7 ar  
    11     6    37 1   
    12     7     8 1   
    13     8     9 1   
    14     8    15 1   
    15     9    10 ar  
    16     9    14 ar  
    17    10    11 ar  
    18    11    12 ar  
    19    11    39 1   
    20    12    13 ar  
    21    13    14 ar  
    22    13    40 1   
    23    14    38 1   
    24    15    16 2   
    25    15    17 1   
    26    17    18 ar  
    27    17    20 ar  
    28    18    19 ar  
    29    18    41 1   
    30    19    22 ar  
    31    19    43 1   
    32    20    21 ar  
    33    20    42 1   
    34    21    22 ar  
    35    21    44 1   
    36    22    23 1   
    37    23    24 1   
    38    23    45 1   
    39    24    25 2   
    40    24    26 1   
    41    26    27 ar  
    42    26    33 ar  
    43    27    28 ar  
    44    27    46 1   
    45    28    29 ar  
    46    28    48 1   
    47    29    30 1   
    48    29    32 ar  
    49    30    31 1   
    50    31    50 1   
    51    31    51 1   
    52    31    52 1   
    53    32    33 ar  
    54    32    49 1   
    55    33    47 1   
@<TRIPOS>SUBSTRUCTURE
     1 8IR         1 TEMP              0 ****  ****    0 ROOT
