@<TRIPOS>MOLECULE
molecule
   52    55     1     0     0
SMALL
bcc


@<TRIPOS>ATOM
      1 Cl           0.0000     0.0000     0.0000 cl         1 8IR      -0.074400
      2 CBB          1.7360     0.0000     0.0000 ca         1 8IR       0.010400
      3 CBD          2.4280     0.0000     1.1960 ca         1 8IR      -0.121000
      4 CBE          3.8110     0.0010     1.1960 ca         1 8IR      -0.116000
      5 CBF          4.5050     0.0030    -0.0000 ca         1 8IR      -0.122000
      6 CBG          3.8190     0.0040    -1.1990 ca         1 8IR      -0.107000
      7 CBA          2.4310    -0.0030    -1.2040 ca         1 8IR       0.042600
      8 NAT          1.7330    -0.0100    -2.4180 n          1 8IR      -0.370500
      9 C4           1.2170    -1.2000    -2.9180 ca         1 8IR       0.596200
     10 N3           0.7230    -1.2560    -4.1510 nb         1 8IR      -0.734000
     11 C2           0.2350    -2.3830    -4.6290 ca         1 8IR       0.706900
     12 N1           0.2140    -3.4900    -3.9150 nb         1 8IR      -0.765000
     13 C6           0.6890    -3.5130    -2.6770 ca         1 8IR       0.476200
     14 C5           1.2160    -2.3560    -2.1370 ca         1 8IR      -0.416600
     15 CAR          1.5610     1.1400    -3.1010 c          1 8IR       0.679700
     16 OAS          0.8060     1.1730    -4.0530 o          1 8IR      -0.513100
     17 CAO          2.2870     2.3570    -2.6930 ca         1 8IR      -0.174600
     18 CAP          2.7300     3.2660    -3.6580 ca         1 8IR      -0.070000
     19 CAQ          3.4070     4.4010    -3.2730 ca         1 8IR      -0.162000
     20 CAN          2.5290     2.6070    -1.3380 ca         1 8IR      -0.070000
     21 CAM          3.2070     3.7440    -0.9610 ca         1 8IR      -0.162000
     22 CAL          3.6510     4.6440    -1.9250 ca         1 8IR       0.086600
     23 NAA          4.3370     5.7930    -1.5390 ns         1 8IR      -0.478100
     24 CAB          4.2190     6.9240    -2.2640 c          1 8IR       0.680700
     25 OAC          3.4040     6.9860    -3.1640 o          1 8IR      -0.587100
     26 CAD          5.0770     8.0860    -1.9640 ca         1 8IR      -0.195600
     27 CAE          4.9560     9.2590    -2.7130 ca         1 8IR      -0.045000
     28 CAF          5.7600    10.3410    -2.4300 ca         1 8IR      -0.201500
     29 CAG          6.6900    10.2680    -1.4010 ca         1 8IR       0.170100
     30 OAH          7.4790    11.3370    -1.1240 os         1 8IR      -0.321900
     31 CAI          8.4140    11.1930    -0.0530 c3         1 8IR       0.126700
     32 CAJ          6.8130     9.1030    -0.6520 ca         1 8IR      -0.201500
     33 CAK          6.0100     8.0180    -0.9250 ca         1 8IR      -0.045000
     34 HBD          1.8870    -0.0010     2.1350 ha         1 8IR       0.152000
     35 HBE          4.3510     0.0010     2.1340 ha         1 8IR       0.142000
     36 HBF          5.5880     0.0060     0.0030 ha         1 8IR       0.143000
     37 HBG          4.3650     0.0030    -2.1350 ha         1 8IR       0.156000
     38 H5           1.6110    -2.3440    -1.1280 ha         1 8IR       0.149000
     39 H2          -0.1610    -2.4000    -5.6370 h5         1 8IR       0.065100
     40 H6           0.6690    -4.4290    -2.0990 h4         1 8IR       0.029100
     41 HAP          2.5400     3.0770    -4.7070 ha         1 8IR       0.153000
     42 HAN          2.1840     1.9060    -0.5870 ha         1 8IR       0.153000
     43 HAQ          3.7520     5.1040    -4.0210 ha         1 8IR       0.149000
     44 HAM          3.3970     3.9370     0.0880 ha         1 8IR       0.149000
     45 HAA          4.8980     5.7870    -0.7100 hn         1 8IR       0.325500
     46 HAE          4.2310     9.3170    -3.5160 ha         1 8IR       0.143500
     47 HAK          6.1060     7.1110    -0.3410 ha         1 8IR       0.143500
     48 HAF          5.6660    11.2510    -3.0110 ha         1 8IR       0.146000
     49 HAJ          7.5380     9.0510     0.1520 ha         1 8IR       0.146000
     50 HAI1         8.9770    12.1120     0.0610 h1         1 8IR       0.044700
     51 HAI2         9.0930    10.3780    -0.2720 h1         1 8IR       0.044700
     52 HAI3         7.8800    10.9810     0.8660 h1         1 8IR       0.044700
@<TRIPOS>BOND
     1     1     2 1
     2     2     3 ar
     3     2     7 ar
     4     3     4 ar
     5     4     5 ar
     6     5     6 ar
     7     6     7 ar
     8     7     8 1
     9     8     9 1
    10     8    15 1
    11     9    10 ar
    12     9    14 ar
    13    10    11 ar
    14    11    12 ar
    15    12    13 ar
    16    13    14 ar
    17    15    16 2
    18    15    17 1
    19    17    18 ar
    20    17    20 ar
    21    18    19 ar
    22    19    22 ar
    23    20    21 ar
    24    21    22 ar
    25    22    23 1
    26    23    24 1
    27    24    25 2
    28    24    26 1
    29    26    27 ar
    30    26    33 ar
    31    27    28 ar
    32    28    29 ar
    33    29    30 1
    34    29    32 ar
    35    30    31 1
    36    32    33 ar
    37     3    34 1
    38     4    35 1
    39     5    36 1
    40     6    37 1
    41    14    38 1
    42    11    39 1
    43    13    40 1
    44    18    41 1
    45    20    42 1
    46    19    43 1
    47    21    44 1
    48    23    45 1
    49    27    46 1
    50    33    47 1
    51    28    48 1
    52    32    49 1
    53    31    50 1
    54    31    51 1
    55    31    52 1
@<TRIPOS>SUBSTRUCTURE
     1 8IR         1 TEMP              0 ****  ****    0 ROOT
