@<TRIPOS>MOLECULE
8J1
   44    46     1     0     0
SMALL
bcc


@<TRIPOS>ATOM
      1 N02          0.0000     0.0000     0.0000 nv         1 8J1      -0.662500
      2 C02          1.3860     0.0000     0.0000 ca         1 8J1       0.507200
      3 N01          2.0300     0.0000     1.1490 nb         1 8J1      -0.582000
      4 C10          3.3670    -0.0010     1.1950 ca         1 8J1       0.379600
      5 C03          2.0710    -0.0070    -1.2240 ca         1 8J1      -0.224300
      6 C04          3.4330    -0.0060    -1.2410 ca         1 8J1      -0.043300
      7 C11          4.1900    -0.0130    -2.5440 c3         1 8J1       0.059200
      8 C05          4.1160    -0.0010    -0.0070 ca         1 8J1      -0.142300
      9 C06          5.5180    -0.0020     0.0490 ca         1 8J1      -0.091000
     10 C07          6.1440     0.0030     1.2590 ca         1 8J1      -0.079000
     11 C08          5.4100     0.0090     2.4430 ca         1 8J1      -0.106300
     12 C09          4.0480    -0.0020     2.4250 ca         1 8J1      -0.113300
     13 C12          6.1340     0.0130     3.7650 c3         1 8J1       0.259700
     14 O13          6.3630     1.3630     4.1770 os         1 8J1      -0.301900
     15 C21          7.0100     1.5450     5.3570 ca         1 8J1       0.151100
     16 C26          7.2670     2.8280     5.8180 ca         1 8J1      -0.140000
     17 C22          7.4110     0.4490     6.1070 ca         1 8J1      -0.213000
     18 C23          8.0680     0.6380     7.3070 ca         1 8J1      -0.057000
     19 C24          8.3270     1.9170     7.7620 ca         1 8J1      -0.122000
     20 C25          7.9250     3.0110     7.0200 ca         1 8J1      -0.055300
     21 C27          8.2040     4.4050     7.5210 c3         1 8J1       0.199100
     22 N28          7.0780     4.8620     8.3480 n7         1 8J1      -0.582200
     23 C29          7.3160     6.2200     8.8550 c3         1 8J1       0.178100
     24 H1          -0.5000     0.8660     0.0270 hn         1 8J1       0.276800
     25 H2          -0.5000    -0.8670     0.0000 hn         1 8J1       0.276800
     26 H3           1.5180     0.0490    -2.1540 ha         1 8J1       0.120000
     27 H4           3.4880    -0.0220    -3.3690 hc         1 8J1       0.012700
     28 H5           4.8170    -0.8950    -2.5930 hc         1 8J1       0.012700
     29 H6           4.8090     0.8740    -2.6060 hc         1 8J1       0.012700
     30 H7           6.1000    -0.0060    -0.8650 ha         1 8J1       0.112000
     31 H8           7.2260     0.0120     1.3010 ha         1 8J1       0.107000
     32 H9           3.4910     0.0030     3.3540 ha         1 8J1       0.122000
     33 H10          5.5310    -0.4940     4.5080 h1         1 8J1       0.006200
     34 H11          7.0830    -0.4980     3.6590 h1         1 8J1       0.006200
     35 H12          6.9520     3.6860     5.2360 ha         1 8J1       0.117000
     36 H13          7.2090    -0.5540     5.7510 ha         1 8J1       0.119000
     37 H14          8.3830    -0.2180     7.8920 ha         1 8J1       0.100000
     38 H15          8.8430     2.0630     8.7030 ha         1 8J1       0.111000
     39 H16          9.1100     4.4000     8.1140 h1         1 8J1       0.010200
     40 H17          8.3270     5.0740     6.6780 h1         1 8J1       0.010200
     41 H18          6.2380     4.8510     7.8040 hn         1 8J1       0.254800
     42 H20          7.4300     6.9020     8.0210 h1         1 8J1      -0.002300
     43 H21          6.4750     6.5310     9.4630 h1         1 8J1      -0.002300
     44 H22          8.2180     6.2290     9.4540 h1         1 8J1      -0.002300
@<TRIPOS>BOND
     1     1     2 1   
     2     1    24 1   
     3     1    25 1   
     4     2     3 ar  
     5     2     5 ar  
     6     3     4 ar  
     7     4     8 ar  
     8     4    12 ar  
     9     5     6 ar  
    10     5    26 1   
    11     6     7 1   
    12     6     8 ar  
    13     7    27 1   
    14     7    28 1   
    15     7    29 1   
    16     8     9 ar  
    17     9    10 ar  
    18     9    30 1   
    19    10    11 ar  
    20    10    31 1   
    21    11    12 ar  
    22    11    13 1   
    23    12    32 1   
    24    13    14 1   
    25    13    33 1   
    26    13    34 1   
    27    14    15 1   
    28    15    16 ar  
    29    15    17 ar  
    30    16    20 ar  
    31    16    35 1   
    32    17    18 ar  
    33    17    36 1   
    34    18    19 ar  
    35    18    37 1   
    36    19    20 ar  
    37    19    38 1   
    38    20    21 1   
    39    21    22 1   
    40    21    39 1   
    41    21    40 1   
    42    22    23 1   
    43    22    41 1   
    44    23    42 1   
    45    23    43 1   
    46    23    44 1   
@<TRIPOS>SUBSTRUCTURE
     1 8J1         1 TEMP              0 ****  ****    0 ROOT
