@<TRIPOS>MOLECULE
molecule
   44    46     1     0     0
SMALL
bcc


@<TRIPOS>ATOM
      1 N02          0.0000     0.0000     0.0000 nv         1 8J1      -1.085500
      2 C02          1.3860     0.0000     0.0000 ca         1 8J1       0.692200
      3 N01          2.0300     0.0000     1.1490 nb         1 8J1      -0.707000
      4 C10          3.3670    -0.0010     1.1950 ca         1 8J1       0.429600
      5 C03          2.0710    -0.0070    -1.2240 ca         1 8J1      -0.255300
      6 C04          3.4330    -0.0060    -1.2410 ca         1 8J1      -0.035300
      7 C11          4.1900    -0.0130    -2.5440 c3         1 8J1      -0.051800
      8 C05          4.1160    -0.0010    -0.0070 ca         1 8J1      -0.154300
      9 C06          5.5180    -0.0020     0.0490 ca         1 8J1      -0.112000
     10 C07          6.1440     0.0030     1.2590 ca         1 8J1      -0.112000
     11 C08          5.4100     0.0090     2.4430 ca         1 8J1      -0.086300
     12 C09          4.0480    -0.0020     2.4250 ca         1 8J1      -0.138300
     13 C12          6.1340     0.0130     3.7650 c3         1 8J1       0.186700
     14 O13          6.3630     1.3630     4.1770 os         1 8J1      -0.324900
     15 C21          7.0100     1.5450     5.3570 ca         1 8J1       0.141100
     16 C26          7.2670     2.8280     5.8180 ca         1 8J1      -0.157000
     17 C22          7.4110     0.4490     6.1070 ca         1 8J1      -0.222000
     18 C23          8.0680     0.6380     7.3070 ca         1 8J1      -0.091000
     19 C24          8.3270     1.9170     7.7620 ca         1 8J1      -0.144000
     20 C25          7.9250     3.0110     7.0200 ca         1 8J1      -0.050300
     21 C27          8.2040     4.4050     7.5210 c3         1 8J1       0.203100
     22 N28          7.0780     4.8620     8.3480 n7         1 8J1      -0.815200
     23 C29          7.3160     6.2200     8.8550 c3         1 8J1       0.146100
     24 H1          -0.5000     0.8660     0.0270 hn         1 8J1       0.436800
     25 H2          -0.5000    -0.8670     0.0000 hn         1 8J1       0.436800
     26 H3           1.5180     0.0490    -2.1540 ha         1 8J1       0.143000
     27 H4           3.4880    -0.0220    -3.3690 hc         1 8J1       0.049367
     28 H5           4.8170    -0.8950    -2.5930 hc         1 8J1       0.049367
     29 H6           4.8090     0.8740    -2.6060 hc         1 8J1       0.049367
     30 H7           6.1000    -0.0060    -0.8650 ha         1 8J1       0.135000
     31 H8           7.2260     0.0120     1.3010 ha         1 8J1       0.134000
     32 H9           3.4910     0.0030     3.3540 ha         1 8J1       0.154000
     33 H10          5.5310    -0.4940     4.5080 h1         1 8J1       0.043200
     34 H11          7.0830    -0.4980     3.6590 h1         1 8J1       0.043200
     35 H12          6.9520     3.6860     5.2360 ha         1 8J1       0.141000
     36 H13          7.2090    -0.5540     5.7510 ha         1 8J1       0.133000
     37 H14          8.3830    -0.2180     7.8920 ha         1 8J1       0.130000
     38 H15          8.8430     2.0630     8.7030 ha         1 8J1       0.136000
     39 H16          9.1100     4.4000     8.1140 h1         1 8J1       0.039200
     40 H17          8.3270     5.0740     6.6780 h1         1 8J1       0.039200
     41 H18          6.2380     4.8510     7.8040 hn         1 8J1       0.357800
     42 H20          7.4300     6.9020     8.0210 h1         1 8J1       0.030700
     43 H21          6.4750     6.5310     9.4630 h1         1 8J1       0.030700
     44 H22          8.2180     6.2290     9.4540 h1         1 8J1       0.030700
@<TRIPOS>BOND
     1     7     6 1
     2     6     5 ar
     3     6     8 ar
     4     5     2 ar
     5     9     8 ar
     6     9    10 ar
     7     8     4 ar
     8     2     1 1
     9     2     3 ar
    10    10    11 ar
    11     4     3 ar
    12     4    12 ar
    13    17    18 ar
    14    17    15 ar
    15    18    19 ar
    16    11    12 ar
    17    11    13 1
    18    14    15 1
    19    14    13 1
    20    15    16 ar
    21    19    20 ar
    22    16    20 ar
    23    20    21 1
    24    23    22 1
    25    21    22 1
    26     1    24 1
    27     1    25 1
    28     5    26 1
    29     7    27 1
    30     7    28 1
    31     7    29 1
    32     9    30 1
    33    10    31 1
    34    12    32 1
    35    13    33 1
    36    13    34 1
    37    16    35 1
    38    17    36 1
    39    18    37 1
    40    19    38 1
    41    21    39 1
    42    21    40 1
    43    22    41 1
    44    23    42 1
    45    23    43 1
    46    23    44 1
@<TRIPOS>SUBSTRUCTURE
     1 8J1         1 TEMP              0 ****  ****    0 ROOT
