@<TRIPOS>MOLECULE
8J2
   60    62     1     0     0
SMALL
bcc


@<TRIPOS>ATOM
      1 O3           0.0000     0.0000     0.0000 o          1 8J2      -0.661000
      2 C4           1.1570     0.0020    -2.4360 c3         1 8J2       0.097000
      3 C5           2.0380    -0.6070    -3.5260 c3         1 8J2      -0.058400
      4 C6           1.3510    -0.4120    -4.8850 c3         1 8J2       0.032700
      5 N1           1.2550     1.0310    -5.1370 n          1 8J2       0.012000
      6 C7           2.1800    -1.0780    -5.9850 c3         1 8J2      -0.022100
      7 C8           1.5680     1.5380    -6.3460 c          1 8J2       0.581100
      8 N2          -1.6060     7.9600    -0.5720 ns         1 8J2      -0.040100
      9 C9           1.7120     3.0270    -6.5250 c3         1 8J2      -0.105100
     10 C10          0.8320     1.8730    -4.1000 ca         1 8J2      -0.044400
     11 C11          0.4670     3.1810    -4.4000 ca         1 8J2      -0.235000
     12 C12          0.0520     4.0330    -3.3990 ca         1 8J2      -0.059000
     13 C13         -0.0000     3.5780    -2.0820 cp         1 8J2      -0.052000
     14 C14          0.3650     2.2680    -1.7850 ca         1 8J2      -0.068000
     15 C15          0.7780     1.4160    -2.7920 ca         1 8J2      -0.146300
     16 C3           1.2150     0.0000     0.0000 c          1 8J2       0.680100
     17 O            1.8880     0.0000     1.1660 os         1 8J2      -0.418900
     18 C1           1.0970    -0.0010     2.3830 c3         1 8J2       0.195100
     19 C2           0.8200    -1.4440     2.8100 c3         1 8J2      -0.015600
     20 C            1.8660     0.7200     3.4920 c3         1 8J2      -0.015600
     21 N            1.8890     0.0010    -1.1670 ns         1 8J2      -0.166900
     22 O1           1.7340     0.7950    -7.2900 o          1 8J2      -0.633100
     23 C16         -0.4450     4.4890    -0.9980 cp         1 8J2      -0.010000
     24 C21         -0.8170     5.7980    -1.2960 ca         1 8J2      -0.137000
     25 C20         -1.2330     6.6440    -0.2790 ca         1 8J2      -0.088400
     26 C22         -2.6060     8.5460     0.1150 c          1 8J2       0.558100
     27 O2          -3.1230     7.9660     1.0460 o          1 8J2      -0.632100
     28 C23         -3.0830     9.9230    -0.2730 c3         1 8J2      -0.069100
     29 C19         -1.2770     6.1850     1.0320 ca         1 8J2      -0.104000
     30 C18         -0.9070     4.8870     1.3260 ca         1 8J2      -0.079000
     31 C17         -0.4980     4.0360     0.3180 ca         1 8J2      -0.112000
     32 H1           0.2560    -0.5920    -2.3340 h1         1 8J2       0.067700
     33 H2           2.1700    -1.6650    -3.3360 hc         1 8J2       0.032200
     34 H3           3.0010    -0.1110    -3.5330 hc         1 8J2       0.032200
     35 H4           0.3580    -0.8440    -4.8570 h1         1 8J2       0.036700
     36 H5           3.0670    -0.4860    -6.1770 hc         1 8J2       0.026700
     37 H6           1.5900    -1.1470    -6.8910 hc         1 8J2       0.026700
     38 H7           2.4710    -2.0710    -5.6670 hc         1 8J2       0.026700
     39 H8          -1.1140     8.4750    -1.2750 hn         1 8J2       0.166500
     40 H9           2.1310     3.4600    -5.6240 hc         1 8J2       0.040700
     41 H10          0.7390     3.4640    -6.7160 hc         1 8J2       0.040700
     42 H11          2.3690     3.2280    -7.3620 hc         1 8J2       0.040700
     43 H12          0.5090     3.5320    -5.4240 ha         1 8J2       0.172000
     44 H13         -0.2320     5.0510    -3.6340 ha         1 8J2       0.109000
     45 H14          0.3240     1.9150    -0.7610 ha         1 8J2       0.146000
     46 H15          0.1580     0.5090     2.2040 h1         1 8J2       0.040700
     47 H16          0.0760    -1.8790     2.1540 hc         1 8J2       0.013367
     48 H17          0.4530    -1.4550     3.8290 hc         1 8J2       0.013367
     49 H18          1.7350    -2.0210     2.7500 hc         1 8J2       0.013367
     50 H19          2.7360     0.1350     3.7670 hc         1 8J2       0.013367
     51 H20          1.2250     0.8410     4.3560 hc         1 8J2       0.013367
     52 H21          2.1830     1.6930     3.1370 hc         1 8J2       0.013367
     53 H22          2.8900    -0.0110    -1.1680 hn         1 8J2       0.179500
     54 H23         -0.8580     6.1290    -2.3260 ha         1 8J2       0.112000
     55 H24         -2.2410    10.6030    -0.2960 hc         1 8J2       0.024033
     56 H25         -3.5420     9.8830    -1.2540 hc         1 8J2       0.024033
     57 H26         -3.8090    10.2710     0.4510 hc         1 8J2       0.024033
     58 H27         -1.5970     6.8490     1.8260 ha         1 8J2       0.145000
     59 H28         -0.9460     4.5330     2.3490 ha         1 8J2       0.104000
     60 H29         -0.2090     3.0180     0.5520 ha         1 8J2       0.118000
@<TRIPOS>BOND
     1     1    16 2   
     2     2     3 1   
     3     2    15 1   
     4     2    21 1   
     5     2    32 1   
     6     3     4 1   
     7     3    33 1   
     8     3    34 1   
     9     4     5 1   
    10     4     6 1   
    11     4    35 1   
    12     5     7 1   
    13     5    10 1   
    14     6    36 1   
    15     6    37 1   
    16     6    38 1   
    17     7     9 1   
    18     7    22 2   
    19     8    25 1   
    20     8    26 1   
    21     8    39 1   
    22     9    40 1   
    23     9    41 1   
    24     9    42 1   
    25    10    11 ar  
    26    10    15 ar  
    27    11    12 ar  
    28    11    43 1   
    29    12    13 ar  
    30    12    44 1   
    31    13    14 ar  
    32    13    23 1   
    33    14    15 ar  
    34    14    45 1   
    35    16    17 1   
    36    16    21 1   
    37    17    18 1   
    38    18    19 1   
    39    18    20 1   
    40    18    46 1   
    41    19    47 1   
    42    19    48 1   
    43    19    49 1   
    44    20    50 1   
    45    20    51 1   
    46    20    52 1   
    47    21    53 1   
    48    23    24 ar  
    49    23    31 ar  
    50    24    25 ar  
    51    24    54 1   
    52    25    29 ar  
    53    26    27 2   
    54    26    28 1   
    55    28    55 1   
    56    28    56 1   
    57    28    57 1   
    58    29    30 ar  
    59    29    58 1   
    60    30    31 ar  
    61    30    59 1   
    62    31    60 1   
@<TRIPOS>SUBSTRUCTURE
     1 8J2         1 TEMP              0 ****  ****    0 ROOT
