@<TRIPOS>MOLECULE
molecule
   88    93     1     0     0
SMALL
bcc


@<TRIPOS>ATOM
      1 C01          0.0000     0.0000     0.0000 c3         1 8J3       0.182100
      2 O01         -0.4740    -0.1480    -1.3400 oh         1 8J3      -0.574800
      3 C02          1.5290     0.0000     0.0000 c3         1 8J3      -0.092400
      4 C03          2.0470     0.0000     1.4420 c3         1 8J3       0.177300
      5 C04          1.4860     1.2160     2.1520 ce         1 8J3      -0.125200
      6 C05          0.0420     1.4790     1.9790 ce         1 8J3      -0.075200
      7 C06         -0.7390     1.8430     3.0180 cf         1 8J3      -0.157000
      8 C07         -0.1600     1.9880     4.3550 cf         1 8J3      -0.175000
      9 C08         -0.9310     2.3480     5.3800 c2         1 8J3      -0.064400
     10 C09         -2.4200     2.6230     5.2230 c3         1 8J3      -0.039200
     11 C10         -0.5190     1.3190     0.5800 c3         1 8J3      -0.085200
     12 C11         -3.2250     1.8520     6.2670 c3         1 8J3      -0.138400
     13 C12         -2.6450     2.0300     7.6800 c3         1 8J3      -0.128400
     14 C13         -1.2190     1.5310     7.6540 c3         1 8J3      -0.010000
     15 C14         -0.3960     2.5050     6.7720 c3         1 8J3      -0.008500
     16 C15          1.0270     2.0000     7.0230 c3         1 8J3      -0.165400
     17 C16          1.0300     1.7290     8.5540 c3         1 8J3      -0.042400
     18 O02          1.6170    -1.1880     2.1080 oh         1 8J3      -0.582800
     19 C39          2.2570     2.0100     2.8950 c2         1 8J3      -0.210000
     20 C18         -1.1800     0.1440     7.0080 c3         1 8J3      -0.111100
     21 C17         -0.4390     1.5000     8.9590 c3         1 8J3      -0.054700
     22 C20         -0.5850     0.1340     9.6320 c3         1 8J3      -0.047700
     23 C21         -2.0630    -0.1350     9.9260 c3         1 8J3      -0.126100
     24 C22          0.2060     0.1240    10.9420 c3         1 8J3      -0.028300
     25 C23          0.1640    -1.2250    11.5300 c1         1 8J3      -0.115100
     26 C24          0.1150    -2.2950    12.0090 c1         1 8J3      -0.288100
     27 C25          0.2650    -3.6720    12.9610 c3         1 8J3      -0.133800
     28 O03          0.8950    -4.5630    11.9740 oh         1 8J3      -0.621800
     29 C29         -1.0200    -4.1130    13.2040 c3         1 8J3       0.333000
     30 C34         -1.8530    -3.1590    14.1570 c3         1 8J3      -0.371733
     31 C37         -1.1850    -4.0690    13.1650 c3         1 8J3      -0.371733
     32 C35         -2.6270    -4.6510    13.4970 c3         1 8J3      -0.056367
     33 C38         -2.4050    -4.4170    14.9930 c3         1 8J3      -0.326067
     34 C33         -3.1000    -4.0090    14.8550 c3         1 8J3      -0.056367
     35 C32         -3.1480    -5.6340    14.8690 c3         1 8J3      -0.326067
     36 C36         -2.3200    -5.9640    13.1870 c3         1 8J3      -0.326067
     37 C31         -2.0610    -6.0990    13.8980 c3         1 8J3      -0.056367
     38 C30         -0.9800    -5.5170    14.1700 c3         1 8J3      -0.371733
     39 H1          -0.3580    -0.8230     0.6060 h1         1 8J3       0.065700
     40 H2          -1.3770    -0.2000    -1.0750 ho         1 8J3       0.392000
     41 H3           1.6690    -1.0610    -0.1700 hc         1 8J3       0.066700
     42 H4           2.1790     0.3800    -0.7790 hc         1 8J3       0.066700
     43 H5           3.1300     0.0500     1.4380 h1         1 8J3       0.043700
     44 H6          -1.7770     2.1140     3.1670 ha         1 8J3       0.149000
     45 H7           0.8250     1.5440     4.4420 ha         1 8J3       0.136000
     46 H8          -2.7560     3.4730     5.8050 hc         1 8J3       0.068200
     47 H9          -2.9620     2.4490     4.3010 hc         1 8J3       0.068200
     48 H10         -0.4770     2.3600     0.2830 hc         1 8J3       0.058200
     49 H11         -1.5550     1.2860     0.8980 hc         1 8J3       0.058200
     50 H12         -4.1590     2.1520     6.7260 hc         1 8J3       0.058700
     51 H13         -3.0920     0.7770     6.2390 hc         1 8J3       0.058700
     52 H14         -3.1800     2.8870     8.0710 hc         1 8J3       0.044700
     53 H15         -3.0980     1.3230     8.3650 hc         1 8J3       0.044700
     54 H16         -0.5110     3.5250     7.1190 hc         1 8J3       0.074700
     55 H17          1.2000     0.9450     7.1990 hc         1 8J3       0.071700
     56 H18          1.6980     2.2060     6.1980 hc         1 8J3       0.071700
     57 H19          1.6400     0.8410     8.6650 hc         1 8J3       0.029700
     58 H20          1.5130     2.4690     9.1810 hc         1 8J3       0.029700
     59 H21          1.9040    -1.0010     2.9870 ho         1 8J3       0.400000
     60 H22          3.3050     1.8230     3.0930 ha         1 8J3       0.126500
     61 H23          1.7230     2.7600     3.4660 ha         1 8J3       0.126500
     62 H24         -1.7340    -0.6360     7.5160 hc         1 8J3       0.036700
     63 H25         -1.8270     0.1110     6.1400 hc         1 8J3       0.036700
     64 H26         -0.3300    -0.5100     6.8610 hc         1 8J3       0.036700
     65 H27         -0.7760     2.2910     9.6180 hc         1 8J3       0.064700
     66 H28         -0.2020    -0.6360     8.9730 hc         1 8J3       0.064700
     67 H29         -2.3630    -0.2340     8.8890 hc         1 8J3       0.053367
     68 H30         -2.0890    -1.2170     9.9770 hc         1 8J3       0.053367
     69 H31         -2.5500     0.5650    10.5940 hc         1 8J3       0.053367
     70 H32          1.1870    -0.2210    10.6410 hc         1 8J3       0.078200
     71 H33          0.2960     0.8780    11.7150 hc         1 8J3       0.078200
     72 H34          1.0040    -3.7060    13.7530 h1         1 8J3       0.129700
     73 H35          0.2320    -4.7910    11.3430 ho         1 8J3       0.378000
     74 H36         -1.0670    -2.7690    14.7940 hc         1 8J3       0.190033
     75 H37         -1.8550    -2.2150    13.6260 hc         1 8J3       0.190033
     76 H38         -1.3860    -3.1230    12.6770 hc         1 8J3       0.190033
     77 H39         -0.5400    -4.5950    12.4720 hc         1 8J3       0.190033
     78 H40         -3.6640    -4.4560    13.2510 hc         1 8J3       0.070700
     79 H41         -2.4300    -3.3410    14.8700 hc         1 8J3       0.174200
     80 H42         -3.2130    -5.0370    15.3630 hc         1 8J3       0.174200
     81 H43         -2.6040    -3.7590    13.9250 hc         1 8J3       0.070700
     82 H44         -2.2100    -5.8040    15.3830 hc         1 8J3       0.174200
     83 H45         -3.9800    -6.0730    15.4050 hc         1 8J3       0.174200
     84 H46         -3.2270    -6.2990    13.6750 hc         1 8J3       0.174200
     85 H47         -1.7050    -6.5280    12.4970 hc         1 8J3       0.174200
     86 H48         -1.9280    -7.1700    13.9920 hc         1 8J3       0.070700
     87 H49         -0.9210    -6.2660    13.3900 hc         1 8J3       0.190033
     88 H50         -0.2820    -5.1720    14.9230 hc         1 8J3       0.190033
@<TRIPOS>BOND
     1    18     4 1   
     2     3     4 1   
     3     3     1 1   
     4     4     5 1   
     5     1     2 1   
     6     1    11 1   
     7     5    19 2   
     8     5     6 1   
     9    11     6 1   
    10     6     7 2   
    11     7     8 1   
    12     8     9 2   
    13     9    10 1   
    14     9    15 1   
    15    20    14 1   
    16    16    15 1   
    17    16    17 1   
    18    10    12 1   
    19    15    14 1   
    20    33    34 1   
    21    33    32 1   
    22    17    21 1   
    23    12    13 1   
    24    14    21 1   
    25    14    13 1   
    26    34    30 1   
    27    34    35 1   
    28    30    29 1   
    29    21    22 1   
    30    28    27 1   
    31    32    31 1   
    32    32    36 1   
    33    22    24 1   
    34    22    23 1   
    35    31    29 1   
    36    35    37 1   
    37    29    27 1   
    38    29    38 1   
    39    24    25 1   
    40    25    26 3   
    41    26    27 1   
    42    36    37 1   
    43    37    38 1   
    44     1    39 1   
    45     2    40 1   
    46     3    41 1   
    47     3    42 1   
    48     4    43 1   
    49     7    44 1   
    50     8    45 1   
    51    10    46 1   
    52    10    47 1   
    53    11    48 1   
    54    11    49 1   
    55    12    50 1   
    56    12    51 1   
    57    13    52 1   
    58    13    53 1   
    59    15    54 1   
    60    16    55 1   
    61    16    56 1   
    62    17    57 1   
    63    17    58 1   
    64    18    59 1   
    65    19    60 1   
    66    19    61 1   
    67    20    62 1   
    68    20    63 1   
    69    20    64 1   
    70    21    65 1   
    71    22    66 1   
    72    23    67 1   
    73    23    68 1   
    74    23    69 1   
    75    24    70 1   
    76    24    71 1   
    77    27    72 1   
    78    28    73 1   
    79    30    74 1   
    80    30    75 1   
    81    31    76 1   
    82    31    77 1   
    83    32    78 1   
    84    33    79 1   
    85    33    80 1   
    86    34    81 1   
    87    35    82 1   
    88    35    83 1   
    89    36    84 1   
    90    36    85 1   
    91    37    86 1   
    92    38    87 1   
    93    38    88 1   
@<TRIPOS>SUBSTRUCTURE
     1 8J3         1 TEMP              0 ****  ****    0 ROOT
