@<TRIPOS>MOLECULE
8J4
   47    49     1     0     0
SMALL
bcc


@<TRIPOS>ATOM
      1 C10          0.0000     0.0000     0.0000 ca         1 8J4       0.376600
      2 C11         -2.8550    -0.0130    -2.4710 c3         1 8J4       0.257700
      3 N02          3.4080    -0.0000     1.0770 nv         1 8J4      -0.662500
      4 C02          2.0220     0.0000     1.1260 ca         1 8J4       0.502200
      5 N01          1.3380     0.0000     0.0000 nb         1 8J4      -0.576000
      6 C03          1.3810    -0.0000     2.3730 ca         1 8J4      -0.220300
      7 C04          0.0200     0.0110     2.4370 ca         1 8J4      -0.055000
      8 C05         -0.7060     0.0050     1.2270 ca         1 8J4      -0.147300
      9 C06         -2.1090     0.0050     1.2210 ca         1 8J4      -0.085000
     10 C07         -2.7770    -0.0010     0.0340 ca         1 8J4      -0.079000
     11 C08         -2.0840    -0.0060    -1.1750 ca         1 8J4      -0.103300
     12 C09         -0.7240     0.0010    -1.2040 ca         1 8J4      -0.116300
     13 O12         -3.0980     1.3320    -2.8870 os         1 8J4      -0.301900
     14 C21         -3.7860     1.5040    -4.0460 ca         1 8J4       0.152100
     15 C26         -4.0530     2.7830    -4.5130 ca         1 8J4      -0.138000
     16 C22         -4.2180     0.4020    -4.7680 ca         1 8J4      -0.195000
     17 C23         -4.9180     0.5790    -5.9460 ca         1 8J4      -0.048300
     18 C29         -5.3870    -0.6190    -6.7310 c3         1 8J4       0.199100
     19 N30         -6.7310    -1.0050    -6.2780 n7         1 8J4      -0.582200
     20 C31         -7.2220    -2.1720    -7.0230 c3         1 8J4       0.178100
     21 C24         -5.1870     1.8550    -6.4060 ca         1 8J4      -0.140000
     22 C25         -4.7530     2.9560    -5.6910 ca         1 8J4      -0.049300
     23 C27         -5.0440     4.3440    -6.1980 c3         1 8J4       0.028900
     24 C28         -3.9030     4.8050    -7.1070 c3         1 8J4       0.008900
     25 H1          -3.8000    -0.5230    -2.3270 h1         1 8J4       0.007700
     26 H2          -2.2790    -0.5280    -3.2310 h1         1 8J4       0.007700
     27 H3           3.9080     0.8660     1.0460 hn         1 8J4       0.276800
     28 H4           3.9070    -0.8670     1.0430 hn         1 8J4       0.276800
     29 H5           1.9660     0.0540     3.2830 ha         1 8J4       0.116000
     30 H6          -0.4910     0.0110     3.3920 ha         1 8J4       0.110000
     31 H7          -2.6580     0.0090     2.1550 ha         1 8J4       0.108000
     32 H8          -3.8600    -0.0010     0.0290 ha         1 8J4       0.108000
     33 H9          -0.2030     0.0930    -2.1490 ha         1 8J4       0.122000
     34 H10         -3.7130     3.6460    -3.9530 ha         1 8J4       0.120000
     35 H11         -3.9750    -0.5980    -4.4270 ha         1 8J4       0.125000
     36 H12         -5.4190    -0.3700    -7.7850 h1         1 8J4       0.009700
     37 H13         -4.7030    -1.4440    -6.5750 h1         1 8J4       0.009700
     38 H14         -7.3600    -0.2370    -6.4080 hn         1 8J4       0.254800
     39 H16         -7.2680    -1.9340    -8.0780 h1         1 8J4      -0.002300
     40 H17         -8.2120    -2.4360    -6.6690 h1         1 8J4      -0.002300
     41 H18         -6.5500    -3.0070    -6.8700 h1         1 8J4      -0.002300
     42 H19         -5.7360     1.9920    -7.3300 ha         1 8J4       0.108000
     43 H20         -5.1330     5.0230    -5.3590 hc         1 8J4       0.016200
     44 H21         -5.9710     4.3380    -6.7580 hc         1 8J4       0.016200
     45 H22         -2.9750     4.8140    -6.5470 hc         1 8J4       0.003033
     46 H23         -4.1130     5.8030    -7.4720 hc         1 8J4       0.003033
     47 H24         -3.8120     4.1260    -7.9460 hc         1 8J4       0.003033
@<TRIPOS>BOND
     1     1     5 ar  
     2     1     8 ar  
     3     1    12 ar  
     4     2    11 1   
     5     2    13 1   
     6     2    25 1   
     7     2    26 1   
     8     3     4 1   
     9     3    27 1   
    10     3    28 1   
    11     4     5 ar  
    12     4     6 ar  
    13     6     7 ar  
    14     6    29 1   
    15     7     8 ar  
    16     7    30 1   
    17     8     9 ar  
    18     9    10 ar  
    19     9    31 1   
    20    10    11 ar  
    21    10    32 1   
    22    11    12 ar  
    23    12    33 1   
    24    13    14 1   
    25    14    15 ar  
    26    14    16 ar  
    27    15    22 ar  
    28    15    34 1   
    29    16    17 ar  
    30    16    35 1   
    31    17    18 1   
    32    17    21 ar  
    33    18    19 1   
    34    18    36 1   
    35    18    37 1   
    36    19    20 1   
    37    19    38 1   
    38    20    39 1   
    39    20    40 1   
    40    20    41 1   
    41    21    22 ar  
    42    21    42 1   
    43    22    23 1   
    44    23    24 1   
    45    23    43 1   
    46    23    44 1   
    47    24    45 1   
    48    24    46 1   
    49    24    47 1   
@<TRIPOS>SUBSTRUCTURE
     1 8J4         1 TEMP              0 ****  ****    0 ROOT
