@<TRIPOS>MOLECULE
molecule
   57    60     1     0     0
SMALL
bcc


@<TRIPOS>ATOM
      1 C23          0.0000     0.0000     0.0000 c3         1 8J6      -0.087100
      2 C17          1.5300     0.0000     0.0000 c3         1 8J6       0.196200
      3 C16          2.0520     0.0000     1.4360 c3         1 8J6      -0.124400
      4 C22          1.9910    -1.3190    -0.6600 c3         1 8J6      -0.087100
      5 N2           2.0700     1.1020    -0.7760 n7         1 8J6      -0.833200
      6 C18          2.1140     2.4290    -0.1890 c3         1 8J6       0.196200
      7 C20          0.7550     3.1290    -0.2740 c3         1 8J6      -0.087100
      8 C21          3.1170     3.2770    -1.0060 c3         1 8J6      -0.087100
      9 C19          2.6000     2.4170     1.2590 c3         1 8J6      -0.124400
     10 C15          1.8380     1.3720     2.0730 c3         1 8J6       0.244500
     11 N1           2.3600     1.3550     3.4460 nu         1 8J6      -0.895900
     12 C13          1.5570     0.9170     4.4870 cc         1 8J6       0.761300
     13 N            1.9100     0.8630     5.7340 nd         1 8J6      -0.772000
     14 S           -0.1040     0.3540     4.3230 ss         1 8J6      -0.293300
     15 C14         -0.1820     0.0700     6.0600 cc         1 8J6      -0.208400
     16 C12          1.0010     0.4140     6.5980 cd         1 8J6       0.471800
     17 C10          1.2750     0.3030     8.0510 ca         1 8J6      -0.118500
     18 C9           0.3280    -0.2720     8.8980 ca         1 8J6      -0.115000
     19 C8           0.5810    -0.3760    10.2510 ca         1 8J6      -0.131000
     20 C7           1.7730     0.0870    10.7740 ca         1 8J6      -0.116000
     21 C11          2.4800     0.7650     8.5720 ca         1 8J6      -0.085000
     22 C6           2.7280     0.6630     9.9360 cp         1 8J6      -0.042000
     23 C3           4.0100     1.1530    10.4990 cp         1 8J6      -0.032000
     24 C2           4.9670     1.7260     9.6620 ca         1 8J6      -0.119500
     25 C1           6.1550     2.1860    10.1900 ca         1 8J6      -0.127500
     26 C4           4.2600     1.0500    11.8650 ca         1 8J6      -0.119500
     27 C5           5.4550     1.5100    12.3830 ca         1 8J6      -0.127500
     28 C            6.3980     2.0810    11.5490 ca         1 8J6      -0.128000
     29 H1          -0.3610     0.7810     0.6580 hc         1 8J6       0.041200
     30 H2          -0.3610    -0.9610     0.3470 hc         1 8J6       0.041200
     31 H3          -0.3610     0.1800    -1.0050 hc         1 8J6       0.041200
     32 H4           1.5190    -0.7480     2.0110 hc         1 8J6       0.054450
     33 H5           3.1110    -0.2300     1.4320 hc         1 8J6       0.054450
     34 H6           3.0730    -1.3500    -0.6880 hc         1 8J6       0.041200
     35 H7           1.6200    -2.1590    -0.0860 hc         1 8J6       0.041200
     36 H8           1.6020    -1.3720    -1.6700 hc         1 8J6       0.041200
     37 H9           2.9790     0.8570    -1.1160 hn         1 8J6       0.366800
     38 H11          0.8960     4.2010    -0.2060 hc         1 8J6       0.041200
     39 H12          0.1250     2.7960     0.5410 hc         1 8J6       0.041200
     40 H13          0.2820     2.8870    -1.2180 hc         1 8J6       0.041200
     41 H14          2.7620     3.3720    -2.0250 hc         1 8J6       0.041200
     42 H15          3.2040     4.2610    -0.5610 hc         1 8J6       0.041200
     43 H16          4.0850     2.7930    -1.0040 hc         1 8J6       0.041200
     44 H17          2.4400     3.3950     1.6960 hc         1 8J6       0.054450
     45 H18          3.6570     2.1800     1.2770 hc         1 8J6       0.054450
     46 H19          0.7810     1.6120     2.0790 h1         1 8J6       0.071700
     47 H20          3.2960     1.6560     3.6290 hn         1 8J6       0.457800
     48 H21         -1.0380    -0.3130     6.6030 h4         1 8J6       0.181000
     49 H22         -0.6090    -0.6370     8.4940 ha         1 8J6       0.130000
     50 H23         -0.1570    -0.8230    10.9060 ha         1 8J6       0.131000
     51 H24          1.9660     0.0040    11.8360 ha         1 8J6       0.132000
     52 H25          3.2190     1.2120     7.9170 ha         1 8J6       0.155000
     53 H26          4.7780     1.8080     8.5990 ha         1 8J6       0.135000
     54 H27          6.8980     2.6330     9.5410 ha         1 8J6       0.129000
     55 H28          3.5220     0.6030    12.5190 ha         1 8J6       0.135000
     56 H29          5.6500     1.4300    13.4450 ha         1 8J6       0.129000
     57 H30          7.3340     2.4420    11.9590 ha         1 8J6       0.128000
@<TRIPOS>BOND
     1     7     6 1
     2     1     2 1
     3     6     5 1
     4     6     9 1
     5     6     8 1
     6    10     9 1
     7    10    11 1
     8    10     3 1
     9     5     2 1
    10    11    12 1
    11     2     3 1
    12     2     4 1
    13    25    24 ar
    14    25    28 ar
    15    24    23 ar
    16    28    27 ar
    17    13    12 2
    18    13    16 1
    19    12    14 1
    20    23    26 ar
    21    23    22 1
    22    27    26 ar
    23    21    22 ar
    24    21    17 ar
    25    22    20 ar
    26    16    17 1
    27    16    15 2
    28    17    18 ar
    29    20    19 ar
    30    14    15 1
    31    18    19 ar
    32     1    29 1
    33     1    30 1
    34     1    31 1
    35     3    32 1
    36     3    33 1
    37     4    34 1
    38     4    35 1
    39     4    36 1
    40     5    37 1
    41     7    38 1
    42     7    39 1
    43     7    40 1
    44     8    41 1
    45     8    42 1
    46     8    43 1
    47     9    44 1
    48     9    45 1
    49    10    46 1
    50    11    47 1
    51    15    48 1
    52    18    49 1
    53    19    50 1
    54    20    51 1
    55    21    52 1
    56    24    53 1
    57    25    54 1
    58    26    55 1
    59    27    56 1
    60    28    57 1
@<TRIPOS>SUBSTRUCTURE
     1 8J6         1 TEMP              0 ****  ****    0 ROOT
