@<TRIPOS>MOLECULE
8J7
   46    48     1     0     0
SMALL
bcc


@<TRIPOS>ATOM
      1 C10          0.0000     0.0000     0.0000 ca         1 8J7       0.387600
      2 C11         -0.6930     0.0130     3.7650 c3         1 8J7       0.058200
      3 C12         -2.8540    -0.0150    -2.4720 c3         1 8J7       0.028900
      4 C13         -3.1140     1.4260    -2.9180 c3         1 8J7       0.033900
      5 C21         -3.8850     1.4190    -4.2140 ca         1 8J7      -0.093300
      6 C22         -3.2080     1.4060    -5.4190 ca         1 8J7      -0.096000
      7 C23         -3.9140     1.3990    -6.6080 ca         1 8J7      -0.099000
      8 C24         -5.2960     1.4050    -6.5910 ca         1 8J7      -0.102000
      9 C25         -5.9730     1.4160    -5.3850 ca         1 8J7      -0.093300
     10 C26         -5.2670     1.4180    -4.1970 ca         1 8J7      -0.075000
     11 C27         -7.4790     1.4230    -5.3670 c3         1 8J7       0.201100
     12 C29         -9.4430     0.0060    -5.3320 c3         1 8J7       0.178100
     13 N02          3.4070    -0.0010     1.0770 nv         1 8J7      -0.662500
     14 C02          2.0220     0.0000     1.1260 ca         1 8J7       0.508200
     15 N01          1.3380     0.0000     0.0000 nb         1 8J7      -0.587000
     16 C03          1.3790     0.0000     2.3740 ca         1 8J7      -0.230300
     17 C04          0.0190     0.0120     2.4360 ca         1 8J7      -0.041300
     18 C05         -0.7070     0.0060     1.2270 ca         1 8J7      -0.151300
     19 C06         -2.1090     0.0060     1.2200 ca         1 8J7      -0.087000
     20 C07         -2.7770    -0.0000     0.0320 ca         1 8J7      -0.094000
     21 C08         -2.0840    -0.0070    -1.1760 ca         1 8J7      -0.084300
     22 C09         -0.7230     0.0000    -1.2050 ca         1 8J7      -0.142300
     23 N28         -7.9750     0.0390    -5.3510 n7         1 8J7      -0.583200
     24 H1           0.0370     0.0210     4.5650 hc         1 8J7       0.012700
     25 H2          -1.3190     0.8940     3.8380 hc         1 8J7       0.012700
     26 H3          -1.3080    -0.8750     3.8450 hc         1 8J7       0.012700
     27 H4          -3.7990    -0.5240    -2.3280 hc         1 8J7       0.023700
     28 H5          -2.2780    -0.5290    -3.2310 hc         1 8J7       0.023700
     29 H6          -3.6900     1.9410    -2.1590 hc         1 8J7       0.021200
     30 H7          -2.1690     1.9360    -3.0630 hc         1 8J7       0.021200
     31 H8          -2.1250     1.4010    -5.4330 ha         1 8J7       0.106000
     32 H9          -3.3840     1.3900    -7.5520 ha         1 8J7       0.102000
     33 H10         -5.8480     1.4010    -7.5230 ha         1 8J7       0.102000
     34 H11         -5.7980     1.4270    -3.2520 ha         1 8J7       0.111000
     35 H12         -7.8280     1.9410    -4.4830 h1         1 8J7       0.009200
     36 H13         -7.8490     1.9280    -6.2510 h1         1 8J7       0.009200
     37 H14         -9.8270     0.4950    -6.2200 h1         1 8J7      -0.002300
     38 H15         -9.8050     0.5220    -4.4510 h1         1 8J7      -0.002300
     39 H16         -9.7810    -1.0230    -5.3120 h1         1 8J7      -0.002300
     40 H17          3.9050    -0.8670     1.0220 hn         1 8J7       0.276300
     41 H18          3.9080     0.8660     1.0680 hn         1 8J7       0.276300
     42 H19          1.9630    -0.0730     3.2830 ha         1 8J7       0.120000
     43 H20         -2.6590     0.0120     2.1530 ha         1 8J7       0.111000
     44 H21         -3.8600    -0.0020     0.0280 ha         1 8J7       0.106000
     45 H22         -0.2020    -0.0890    -2.1500 ha         1 8J7       0.121000
     46 H23         -7.6400    -0.4440    -6.1610 hn         1 8J7       0.253800
@<TRIPOS>BOND
     1     1    15 ar  
     2     1    18 ar  
     3     1    22 ar  
     4     2    17 1   
     5     2    24 1   
     6     2    25 1   
     7     2    26 1   
     8     3     4 1   
     9     3    21 1   
    10     3    27 1   
    11     3    28 1   
    12     4     5 1   
    13     4    29 1   
    14     4    30 1   
    15     5     6 ar  
    16     5    10 ar  
    17     6     7 ar  
    18     6    31 1   
    19     7     8 ar  
    20     7    32 1   
    21     8     9 ar  
    22     8    33 1   
    23     9    10 ar  
    24     9    11 1   
    25    10    34 1   
    26    11    23 1   
    27    11    35 1   
    28    11    36 1   
    29    12    23 1   
    30    12    37 1   
    31    12    38 1   
    32    12    39 1   
    33    13    14 1   
    34    13    40 1   
    35    13    41 1   
    36    14    15 ar  
    37    14    16 ar  
    38    16    17 ar  
    39    16    42 1   
    40    17    18 ar  
    41    18    19 ar  
    42    19    20 ar  
    43    19    43 1   
    44    20    21 ar  
    45    20    44 1   
    46    21    22 ar  
    47    22    45 1   
    48    23    46 1   
@<TRIPOS>SUBSTRUCTURE
     1 8J7         1 TEMP              0 ****  ****    0 ROOT
