@<TRIPOS>MOLECULE
molecule
   46    48     1     0     0
SMALL
bcc


@<TRIPOS>ATOM
      1 C10          0.0000     0.0000     0.0000 ca         1 8J7       0.436600
      2 C11         -0.6930     0.0130     3.7650 c3         1 8J7      -0.050800
      3 C12         -2.8540    -0.0150    -2.4720 c3         1 8J7      -0.034100
      4 C13         -3.1140     1.4260    -2.9180 c3         1 8J7      -0.031100
      5 C21         -3.8850     1.4190    -4.2140 ca         1 8J7      -0.086300
      6 C22         -3.2080     1.4060    -5.4190 ca         1 8J7      -0.123000
      7 C23         -3.9140     1.3990    -6.6080 ca         1 8J7      -0.126000
      8 C24         -5.2960     1.4050    -6.5910 ca         1 8J7      -0.129000
      9 C25         -5.9730     1.4160    -5.3850 ca         1 8J7      -0.084300
     10 C26         -5.2670     1.4180    -4.1970 ca         1 8J7      -0.102000
     11 C27         -7.4790     1.4230    -5.3670 c3         1 8J7       0.203100
     12 C29         -9.4430     0.0060    -5.3320 c3         1 8J7       0.146100
     13 N02          3.4070    -0.0010     1.0770 nv         1 8J7      -1.085500
     14 C02          2.0220     0.0000     1.1260 ca         1 8J7       0.692200
     15 N01          1.3380     0.0000     0.0000 nb         1 8J7      -0.711000
     16 C03          1.3790     0.0000     2.3740 ca         1 8J7      -0.260300
     17 C04          0.0190     0.0120     2.4360 ca         1 8J7      -0.033300
     18 C05         -0.7070     0.0060     1.2270 ca         1 8J7      -0.163300
     19 C06         -2.1090     0.0060     1.2200 ca         1 8J7      -0.108000
     20 C07         -2.7770    -0.0000     0.0320 ca         1 8J7      -0.126000
     21 C08         -2.0840    -0.0070    -1.1760 ca         1 8J7      -0.074300
     22 C09         -0.7230     0.0000    -1.2050 ca         1 8J7      -0.167300
     23 N28         -7.9750     0.0390    -5.3510 n7         1 8J7      -0.815200
     24 H1           0.0370     0.0210     4.5650 hc         1 8J7       0.048700
     25 H2          -1.3190     0.8940     3.8380 hc         1 8J7       0.048700
     26 H3          -1.3080    -0.8750     3.8450 hc         1 8J7       0.048700
     27 H4          -3.7990    -0.5240    -2.3280 hc         1 8J7       0.055200
     28 H5          -2.2780    -0.5290    -3.2310 hc         1 8J7       0.055200
     29 H6          -3.6900     1.9410    -2.1590 hc         1 8J7       0.053200
     30 H7          -2.1690     1.9360    -3.0630 hc         1 8J7       0.053200
     31 H8          -2.1250     1.4010    -5.4330 ha         1 8J7       0.131000
     32 H9          -3.3840     1.3900    -7.5520 ha         1 8J7       0.129000
     33 H10         -5.8480     1.4010    -7.5230 ha         1 8J7       0.126000
     34 H11         -5.7980     1.4270    -3.2520 ha         1 8J7       0.135000
     35 H12         -7.8280     1.9410    -4.4830 h1         1 8J7       0.037700
     36 H13         -7.8490     1.9280    -6.2510 h1         1 8J7       0.037700
     37 H14         -9.8270     0.4950    -6.2200 h1         1 8J7       0.030700
     38 H15         -9.8050     0.5220    -4.4510 h1         1 8J7       0.030700
     39 H16         -9.7810    -1.0230    -5.3120 h1         1 8J7       0.030700
     40 H17          3.9050    -0.8670     1.0220 hn         1 8J7       0.435800
     41 H18          3.9080     0.8660     1.0680 hn         1 8J7       0.435800
     42 H19          1.9630    -0.0730     3.2830 ha         1 8J7       0.142000
     43 H20         -2.6590     0.0120     2.1530 ha         1 8J7       0.133000
     44 H21         -3.8600    -0.0020     0.0280 ha         1 8J7       0.131000
     45 H22         -0.2020    -0.0890    -2.1500 ha         1 8J7       0.149000
     46 H23         -7.6400    -0.4440    -6.1610 hn         1 8J7       0.355800
@<TRIPOS>BOND
     1     2    17 1   
     2    17    16 ar  
     3    17    18 ar  
     4    16    14 ar  
     5    19    18 ar  
     6    19    20 ar  
     7    18     1 ar  
     8    14    13 1   
     9    14    15 ar  
    10    20    21 ar  
    11     1    15 ar  
    12     1    22 ar  
    13    21    22 ar  
    14    21     3 1   
    15     4     3 1   
    16     4     5 1   
    17     6     5 ar  
    18     6     7 ar  
    19     5    10 ar  
    20     7     8 ar  
    21    10     9 ar  
    22     8     9 ar  
    23     9    11 1   
    24    23    11 1   
    25    23    12 1   
    26     2    24 1   
    27     2    25 1   
    28     2    26 1   
    29     3    27 1   
    30     3    28 1   
    31     4    29 1   
    32     4    30 1   
    33     6    31 1   
    34     7    32 1   
    35     8    33 1   
    36    10    34 1   
    37    11    35 1   
    38    11    36 1   
    39    12    37 1   
    40    12    38 1   
    41    12    39 1   
    42    13    40 1   
    43    13    41 1   
    44    16    42 1   
    45    19    43 1   
    46    20    44 1   
    47    22    45 1   
    48    23    46 1   
@<TRIPOS>SUBSTRUCTURE
     1 8J7         1 TEMP              0 ****  ****    0 ROOT
