@<TRIPOS>MOLECULE
molecule
   65    67     1     0     0
SMALL
bcc


@<TRIPOS>ATOM
      1 O1           0.0000     0.0000     0.0000 os         1 8J8      -0.319900
      2 C1           8.2080     0.0160     1.9400 ca         1 8J8      -0.086300
      3 C2           9.0350     0.0220     3.0610 cp         1 8J8      -0.038000
      4 C3          10.5110     0.0240     2.8970 cp         1 8J8      -0.038000
      5 C4          11.2820    -0.9740     3.4880 ca         1 8J8      -0.116500
      6 C5          12.6520    -0.9700     3.3270 ca         1 8J8      -0.130000
      7 C6          13.2610     0.0240     2.5810 ca         1 8J8      -0.127000
      8 C7          12.5010     1.0180     1.9930 ca         1 8J8      -0.130000
      9 C8          11.1290     1.0230     2.1470 ca         1 8J8      -0.116500
     10 C9           8.4740     0.0250     4.3370 ca         1 8J8      -0.119000
     11 O2          -2.5560     5.1400    -5.3380 o          1 8J8      -0.607100
     12 C10          7.1010     0.0240     4.4830 ca         1 8J8      -0.130000
     13 C11          6.2840     0.0180     3.3670 ca         1 8J8      -0.100000
     14 C12          6.8370     0.0140     2.0990 ca         1 8J8      -0.074300
     15 C13          5.9960     0.0050     0.3450 c3         1 8J8       0.184700
     16 C14          3.6440     0.0000     0.0000 ca         1 8J8       0.206100
     17 C15          2.3340     0.0000     0.4570 ca         1 8J8      -0.321000
     18 C16          1.2830     0.0000    -0.4480 ca         1 8J8       0.220600
     19 O3           3.1040     0.0030    -3.6030 os         1 8J8      -0.319900
     20 C17         -0.1920    -0.0010     1.4160 c3         1 8J8       0.128200
     21 C18          1.5420     0.0010    -1.8110 ca         1 8J8      -0.185300
     22 C19          0.4010     0.0020    -2.7940 c3         1 8J8       0.229100
     23 C22         -3.0370     4.1070    -5.7530 c          1 8J8       0.656100
     24 C23         -4.1780     4.1470    -6.7370 c3         1 8J8      -0.172100
     25 C21         -1.4410     2.8820    -4.3790 c3         1 8J8       0.110000
     26 C20         -1.0840     1.4260    -4.0710 c3         1 8J8       0.139800
     27 N            0.0290     1.3870    -3.1130 n7         1 8J8      -0.808200
     28 C24          2.8520     0.0010    -2.2680 ca         1 8J8       0.220600
     29 C25          4.4760     0.0030    -4.0040 c3         1 8J8       0.128200
     30 C26          3.9010     0.0010    -1.3630 ca         1 8J8      -0.321000
     31 O            4.6730     0.0040     0.8870 os         1 8J8      -0.307900
     32 H1          10.8060    -1.7530     4.0720 ha         1 8J8       0.135000
     33 H2          13.2530    -1.7460     3.7860 ha         1 8J8       0.130000
     34 H3          14.3380     0.0230     2.4580 ha         1 8J8       0.129000
     35 H4          12.9820     1.7940     1.4110 ha         1 8J8       0.130000
     36 H5          10.5340     1.8020     1.6860 ha         1 8J8       0.135000
     37 H6           9.1130     0.0300     5.2110 ha         1 8J8       0.136000
     38 H7           6.6630     0.0260     5.4740 ha         1 8J8       0.134000
     39 H8           5.2070     0.0160     3.4860 ha         1 8J8       0.143000
     40 H9           6.3020    -0.8810    -0.1970 h1         1 8J8       0.057700
     41 H10          6.2980     0.8880    -0.2050 h1         1 8J8       0.057700
     42 H11          2.1320    -0.0010     1.5210 ha         1 8J8       0.142500
     43 H12          0.2620    -0.8870     1.8420 h1         1 8J8       0.043367
     44 H13          0.2680     0.8820     1.8440 h1         1 8J8       0.043367
     45 H14         -1.2530     0.0030     1.6370 h1         1 8J8       0.043367
     46 H15         -2.9300     2.0680    -5.6960 hn         1 8J8       0.309500
     47 H16         -0.4500    -0.5090    -2.3600 h1         1 8J8       0.043700
     48 H17          0.7040    -0.5080    -3.7000 h1         1 8J8       0.043700
     49 H18         -3.8810     3.6560    -7.6550 hc         1 8J8       0.059367
     50 H19         -4.4380     5.1780    -6.9460 hc         1 8J8       0.059367
     51 H20         -5.0360     3.6370    -6.3160 hc         1 8J8       0.059367
     52 H21         -1.7340     3.3820    -3.4640 h1         1 8J8       0.060200
     53 H22         -0.5800     3.3820    -4.8040 h1         1 8J8       0.060200
     54 H23         -0.7900     0.9260    -4.9860 h1         1 8J8       0.032200
     55 H24         -1.9450     0.9250    -3.6460 h1         1 8J8       0.032200
     56 H25         -0.2360     1.8630    -2.2740 hn         1 8J8       0.359800
     57 H27          4.9650    -0.8840    -3.6190 h1         1 8J8       0.043367
     58 H28          4.5360     0.0070    -5.0850 h1         1 8J8       0.043367
     59 H29          4.9670     0.8850    -3.6110 h1         1 8J8       0.043367
     60 H30          4.9240     0.0010    -1.7200 ha         1 8J8       0.142500
     61 H31          9.7960    -0.4220     0.5920 hc         1 8J8       0.045033
     62 H32          8.8790     1.0380     0.1970 hc         1 8J8       0.045033
     63 H33          8.1780    -0.5570    -0.1100 hc         1 8J8       0.045033
     64 C            8.8080     0.0190     0.5580 c3         1 8J8      -0.052800
     65 N1          -2.5500     2.9210    -5.3340 ns         1 8J8      -0.592900
@<TRIPOS>BOND
     1     6     7 ar
     2     6     5 ar
     3     7     8 ar
     4    11    23 2
     5     5     4 ar
     6     8     9 ar
     7    23    24 1
     8    23    65 1
     9     4     9 ar
    10     4     3 1
    11    64     2 1
    12    65    25 1
    13    25    26 1
    14     3     2 ar
    15     3    10 ar
    16    29    19 1
    17     2    14 ar
    18    26    27 1
    19    27    22 1
    20    19    28 1
    21    10    12 ar
    22    30    28 ar
    23    30    16 ar
    24    28    21 ar
    25    31    16 1
    26    31    15 1
    27    14    15 1
    28    14    13 ar
    29    16    17 ar
    30    22    21 1
    31    21    18 ar
    32    12    13 ar
    33    17    18 ar
    34    18     1 1
    35     1    20 1
    36     5    32 1
    37     6    33 1
    38     7    34 1
    39     8    35 1
    40     9    36 1
    41    10    37 1
    42    12    38 1
    43    13    39 1
    44    15    40 1
    45    15    41 1
    46    17    42 1
    47    20    43 1
    48    20    44 1
    49    20    45 1
    50    65    46 1
    51    22    47 1
    52    22    48 1
    53    24    49 1
    54    24    50 1
    55    24    51 1
    56    25    52 1
    57    25    53 1
    58    26    54 1
    59    26    55 1
    60    27    56 1
    61    29    57 1
    62    29    58 1
    63    29    59 1
    64    30    60 1
    65    64    61 1
    66    64    62 1
    67    64    63 1
@<TRIPOS>SUBSTRUCTURE
     1 8J8         1 TEMP              0 ****  ****    0 ROOT
