@<TRIPOS>MOLECULE
molecule
   68    71     1     0     0
SMALL
bcc


@<TRIPOS>ATOM
      1 C4           0.0000     0.0000     0.0000 ca         1 8JC       0.804200
      2 C5           1.3970     0.0000     0.0000 ca         1 8JC      -0.558900
      3 C6           2.0550     0.0000     1.2150 ca         1 8JC       0.570200
      4 N1           1.3480    -0.0010     2.3360 nb         1 8JC      -0.829000
      5 N3          -0.6450    -0.0010     1.1620 nb         1 8JC      -0.853000
      6 C2           0.0230    -0.0020     2.3050 ca         1 8JC       0.988900
      7 CAA         -2.1970    -1.6770     7.0450 c3         1 8JC       0.131700
      8 CAB          5.3670    -1.5380    11.4860 c3         1 8JC      -0.171100
      9 CAK         -4.0960    -1.0220    -0.2190 ca         1 8JC      -0.099000
     10 CAL         -4.8560    -0.3630    -1.1650 ca         1 8JC      -0.175000
     11 CAM         -2.7190    -0.9020    -0.2280 ca         1 8JC      -0.139000
     12 CAN          1.8940     0.8980     5.9710 ca         1 8JC      -0.202000
     13 CAO          1.2170     0.7860     4.7710 ca         1 8JC      -0.070000
     14 CAQ         -2.8560     0.5420    -2.1460 ca         1 8JC      -0.156000
     15 CAR          0.1510    -0.3390     7.0750 ca         1 8JC      -0.230000
     16 CAS         -4.8300     2.1620    -6.5690 c2         1 8JC      -0.123000
     17 CAT         -5.2950     2.0170    -5.3320 ce         1 8JC      -0.255200
     18 CAU          3.9400     1.4460     9.5360 c3         1 8JC       0.105000
     19 CAV          2.8910    -0.7090    10.3280 c3         1 8JC       0.105000
     20 CAW          3.3080     1.1920     8.1630 c3         1 8JC       0.146800
     21 CAX          2.3000    -0.8790     8.9250 c3         1 8JC       0.146800
     22 CBI         -4.2370     0.4220    -2.1310 ca         1 8JC       0.073600
     23 CBJ         -2.0950    -0.1150    -1.1880 ca         1 8JC       0.163600
     24 CBK          1.3650     0.3340     7.1240 ca         1 8JC       0.123600
     25 CBM          0.0080     0.1100     4.7170 ca         1 8JC       0.104600
     26 CBN         -0.5250    -0.4580     5.8720 ca         1 8JC       0.131100
     27 CBT          2.1670     0.0020    -1.2950 c3         1 8JC       0.690200
     28 FAG          3.5400     0.0020    -1.0210 f          1 8JC      -0.226300
     29 FAH          1.8400    -1.1400    -2.0330 f          1 8JC      -0.226300
     30 FAI          1.8400     1.1440    -2.0320 f          1 8JC      -0.226300
     31 NBC         -0.7030     0.0060    -1.1950 nu         1 8JC      -0.751300
     32 NBD         -0.6780    -0.0040     3.4980 nu         1 8JC      -0.729300
     33 NBR          4.0740     0.1590    10.2350 n          1 8JC      -0.498800
     34 NBS          2.0550     0.4450     8.3360 nh         1 8JC      -0.597000
     35 OAE          6.2180     0.5140    10.6880 o          1 8JC      -0.609100
     36 OAF         -3.4810     0.7140    -4.6660 o          1 8JC      -0.601100
     37 OBE         -1.7110    -1.1210     5.8210 os         1 8JC      -0.335900
     38 H1           3.1380     0.0000     1.2500 h4         1 8JC       0.045100
     39 H2          -2.3100    -0.8890     7.7790 h1         1 8JC       0.043033
     40 H3          -3.1570    -2.1490     6.8700 h1         1 8JC       0.043033
     41 H4          -1.4940    -2.4150     7.4110 h1         1 8JC       0.043033
     42 H5           6.3460    -1.6180    11.9440 hc         1 8JC       0.060700
     43 H6           5.2260    -2.3570    10.7910 hc         1 8JC       0.060700
     44 H7           4.6040    -1.5820    12.2540 hc         1 8JC       0.060700
     45 H8          -4.5800    -1.6350     0.5310 ha         1 8JC       0.134000
     46 H9          -5.9350    -0.4580    -1.1550 ha         1 8JC       0.130000
     47 H10         -2.1270    -1.4180     0.5180 ha         1 8JC       0.157000
     48 H11          2.8400     1.4250     6.0120 ha         1 8JC       0.142000
     49 H12          1.6310     1.2270     3.8720 ha         1 8JC       0.174000
     50 H13         -2.3720     1.1540    -2.8970 ha         1 8JC       0.162000
     51 H14         -0.2620    -0.7790     7.9750 ha         1 8JC       0.143000
     52 H15         -5.3890     2.7420    -7.2940 ha         1 8JC       0.131000
     53 H16         -3.8910     1.7020    -6.8530 ha         1 8JC       0.131000
     54 H18         -6.2340     2.4770    -5.0480 ha         1 8JC       0.127000
     55 H20          3.3040     2.1070    10.1120 h1         1 8JC       0.063700
     56 H21          4.9190     1.8930     9.4080 h1         1 8JC       0.063700
     57 H22          2.1560    -0.2510    10.9790 h1         1 8JC       0.063700
     58 H23          3.1800    -1.6760    10.7200 h1         1 8JC       0.063700
     59 H24          3.0990     2.1390     7.6820 h1         1 8JC       0.052200
     60 H25          3.9910     0.6130     7.5540 h1         1 8JC       0.052200
     61 H26          1.3650    -1.4220     8.9910 h1         1 8JC       0.052200
     62 H27          2.9990    -1.4250     8.3040 h1         1 8JC       0.052200
     63 H28         -5.8910     1.4800    -2.8420 hn         1 8JC       0.326500
     64 H29         -0.2120     0.0840    -2.0640 hn         1 8JC       0.473800
     65 H30         -1.6780    -0.0490     3.4910 hn         1 8JC       0.477800
     66 NBB         -5.0070     1.0820    -3.0950 ns         1 8JC      -0.474100
     67 CBG          5.2520    -0.2150    10.7750 c          1 8JC       0.662100
     68 CBH         -4.5350     1.2300    -4.3490 c          1 8JC       0.664300
@<TRIPOS>BOND
     1    30    27 1   
     2    29    27 1   
     3    28    27 1   
     4    27     2 1   
     5     2     3 ar  
     6     2     1 ar  
     7     3     4 ar  
     8    31     1 1   
     9    31    23 1   
    10     1     5 ar  
    11    23    11 ar  
    12    23    14 ar  
    13    11     9 ar  
    14     4     6 ar  
    15    14    22 ar  
    16    36    68 2   
    17     5     6 ar  
    18     9    10 ar  
    19     6    32 1   
    20    22    10 ar  
    21    22    66 1   
    22    68    66 1   
    23    68    17 1   
    24    16    17 2   
    25    32    25 1   
    26    13    25 ar  
    27    13    12 ar  
    28    25    26 ar  
    29    12    24 ar  
    30    26    37 1   
    31    26    15 ar  
    32    37     7 1   
    33    24    15 ar  
    34    24    34 1   
    35    20    34 1   
    36    20    18 1   
    37    34    21 1   
    38    18    33 1   
    39    21    19 1   
    40    33    19 1   
    41    33    67 1   
    42    35    67 2   
    43    67     8 1   
    44     3    38 1   
    45     7    39 1   
    46     7    40 1   
    47     7    41 1   
    48     8    42 1   
    49     8    43 1   
    50     8    44 1   
    51     9    45 1   
    52    10    46 1   
    53    11    47 1   
    54    12    48 1   
    55    13    49 1   
    56    14    50 1   
    57    15    51 1   
    58    16    52 1   
    59    16    53 1   
    60    17    54 1   
    61    18    55 1   
    62    18    56 1   
    63    19    57 1   
    64    19    58 1   
    65    20    59 1   
    66    20    60 1   
    67    21    61 1   
    68    21    62 1   
    69    66    63 1   
    70    31    64 1   
    71    32    65 1   
@<TRIPOS>SUBSTRUCTURE
     1 8JC         1 TEMP              0 ****  ****    0 ROOT
