@<TRIPOS>MOLECULE
8JC
   68    71     1     0     0
SMALL
bcc


@<TRIPOS>ATOM
      1 C4           0.0000     0.0000     0.0000 ca         1 8JC       0.622200
      2 C5           1.3970     0.0000     0.0000 ca         1 8JC      -0.606900
      3 C6           2.0550     0.0000     1.2150 ca         1 8JC       0.585200
      4 N1           1.3480    -0.0010     2.3360 nb         1 8JC      -0.745000
      5 N3          -0.6450    -0.0010     1.1620 nb         1 8JC      -0.760000
      6 C2           0.0230    -0.0020     2.3050 ca         1 8JC       0.755900
      7 CAA         -2.1970    -1.6770     7.0450 c3         1 8JC       0.248700
      8 CAB          5.3670    -1.5380    11.4860 c3         1 8JC      -0.073100
      9 CAK         -4.0960    -1.0220    -0.2190 ca         1 8JC      -0.068000
     10 CAL         -4.8560    -0.3630    -1.1650 ca         1 8JC      -0.143000
     11 CAM         -2.7190    -0.9020    -0.2280 ca         1 8JC      -0.116000
     12 CAN          1.8940     0.8980     5.9710 ca         1 8JC      -0.185000
     13 CAO          1.2170     0.7860     4.7710 ca         1 8JC      -0.047000
     14 CAQ         -2.8560     0.5420    -2.1460 ca         1 8JC      -0.126000
     15 CAR          0.1510    -0.3390     7.0750 ca         1 8JC      -0.223000
     16 CAS         -4.8300     2.1620    -6.5690 c2         1 8JC      -0.048000
     17 CAT         -5.2950     2.0170    -5.3320 ce         1 8JC      -0.250200
     18 CAU          3.9400     1.4460     9.5360 c3         1 8JC       0.049000
     19 CAV          2.8910    -0.7090    10.3280 c3         1 8JC       0.049000
     20 CAW          3.3080     1.1920     8.1630 c3         1 8JC       0.119300
     21 CAX          2.3000    -0.8790     8.9250 c3         1 8JC       0.119300
     22 CBI         -4.2370     0.4220    -2.1310 ca         1 8JC      -0.071400
     23 CBJ         -2.0950    -0.1150    -1.1880 ca         1 8JC       0.008600
     24 CBK          1.3650     0.3340     7.1240 ca         1 8JC       0.048600
     25 CBM          0.0080     0.1100     4.7170 ca         1 8JC      -0.067400
     26 CBN         -0.5250    -0.4580     5.8720 ca         1 8JC       0.148100
     27 CBT          2.1670     0.0020    -1.2950 c3         1 8JC       0.667200
     28 FAG          3.5400     0.0020    -1.0210 f          1 8JC      -0.210633
     29 FAH          1.8400    -1.1400    -2.0330 f          1 8JC      -0.210633
     30 FAI          1.8400     1.1440    -2.0320 f          1 8JC      -0.210633
     31 NBC         -0.7030     0.0060    -1.1950 nu         1 8JC      -0.284300
     32 NBD         -0.6780    -0.0040     3.4980 nu         1 8JC      -0.244300
     33 NBR          4.0740     0.1590    10.2350 n          1 8JC      -0.166800
     34 NBS          2.0550     0.4450     8.3360 nh         1 8JC      -0.361000
     35 OAE          6.2180     0.5140    10.6880 o          1 8JC      -0.646100
     36 OAF         -3.4810     0.7140    -4.6660 o          1 8JC      -0.643100
     37 OBE         -1.7110    -1.1210     5.8210 os         1 8JC      -0.316900
     38 H1           3.1380     0.0000     1.2500 h4         1 8JC      -0.005900
     39 H2          -2.3100    -0.8890     7.7790 h1         1 8JC      -0.001300
     40 H3          -3.1570    -2.1490     6.8700 h1         1 8JC      -0.001300
     41 H4          -1.4940    -2.4150     7.4110 h1         1 8JC      -0.001300
     42 H5           5.2350    -2.3440    10.7750 hc         1 8JC       0.025033
     43 H6           4.6080    -1.6070    12.2560 hc         1 8JC       0.025033
     44 H7           6.3480    -1.6140    11.9400 hc         1 8JC       0.025033
     45 H8          -4.5800    -1.6350     0.5310 ha         1 8JC       0.103000
     46 H9          -5.9350    -0.4580    -1.1550 ha         1 8JC       0.105000
     47 H10         -2.1270    -1.4180     0.5180 ha         1 8JC       0.134000
     48 H11          2.8400     1.4250     6.0120 ha         1 8JC       0.127000
     49 H12          1.6310     1.2270     3.8720 ha         1 8JC       0.148000
     50 H13         -2.3720     1.1540    -2.8970 ha         1 8JC       0.143000
     51 H14         -0.2620    -0.7790     7.9750 ha         1 8JC       0.132000
     52 H15         -3.8910     1.7020    -6.8530 ha         1 8JC       0.092000
     53 H16         -5.3890     2.7420    -7.2940 ha         1 8JC       0.092000
     54 H18         -6.2340     2.4770    -5.0480 ha         1 8JC       0.105000
     55 H20          3.3040     2.1070    10.1120 h1         1 8JC       0.035700
     56 H21          4.9190     1.8930     9.4080 h1         1 8JC       0.035700
     57 H22          2.1560    -0.2510    10.9790 h1         1 8JC       0.035700
     58 H23          3.1800    -1.6760    10.7200 h1         1 8JC       0.035700
     59 H24          3.0990     2.1390     7.6820 h1         1 8JC       0.027450
     60 H25          3.9910     0.6130     7.5540 h1         1 8JC       0.027450
     61 H26          1.3650    -1.4220     8.9910 h1         1 8JC       0.027450
     62 H27          2.9990    -1.4250     8.3040 h1         1 8JC       0.027450
     63 H28         -5.8910     1.4800    -2.8420 hn         1 8JC       0.168500
     64 H29         -0.2120     0.0840    -2.0640 hn         1 8JC       0.304800
     65 H30         -1.6780    -0.0490     3.4910 hn         1 8JC       0.298800
     66 NBB         -5.0070     1.0820    -3.0950 ns         1 8JC      -0.030100
     67 CBG          5.2520    -0.2150    10.7750 c          1 8JC       0.590100
     68 CBH         -4.5350     1.2300    -4.3490 c          1 8JC       0.571300
@<TRIPOS>BOND
     1     1     2 ar  
     2     1     5 ar  
     3     1    31 1   
     4     2     3 ar  
     5     2    27 1   
     6     3     4 ar  
     7     3    38 1   
     8     4     6 ar  
     9     5     6 ar  
    10     6    32 1   
    11     7    37 1   
    12     7    39 1   
    13     7    40 1   
    14     7    41 1   
    15     8    42 1   
    16     8    43 1   
    17     8    44 1   
    18     8    67 1   
    19     9    10 ar  
    20     9    11 ar  
    21     9    45 1   
    22    10    22 ar  
    23    10    46 1   
    24    11    23 ar  
    25    11    47 1   
    26    12    13 ar  
    27    12    24 ar  
    28    12    48 1   
    29    13    25 ar  
    30    13    49 1   
    31    14    22 ar  
    32    14    23 ar  
    33    14    50 1   
    34    15    24 ar  
    35    15    26 ar  
    36    15    51 1   
    37    16    17 2   
    38    16    52 1   
    39    16    53 1   
    40    17    54 1   
    41    17    68 1   
    42    18    20 1   
    43    18    33 1   
    44    18    55 1   
    45    18    56 1   
    46    19    21 1   
    47    19    33 1   
    48    19    57 1   
    49    19    58 1   
    50    20    34 1   
    51    20    59 1   
    52    20    60 1   
    53    21    34 1   
    54    21    61 1   
    55    21    62 1   
    56    22    66 1   
    57    23    31 1   
    58    24    34 1   
    59    25    26 ar  
    60    25    32 1   
    61    26    37 1   
    62    27    28 1   
    63    27    29 1   
    64    27    30 1   
    65    31    64 1   
    66    32    65 1   
    67    33    67 1   
    68    35    67 2   
    69    36    68 2   
    70    63    66 1   
    71    66    68 1   
@<TRIPOS>SUBSTRUCTURE
     1 8JC         1 TEMP              0 ****  ****    0 ROOT
