@<TRIPOS>MOLECULE
molecule
   55    58     1     0     0
SMALL
bcc


@<TRIPOS>ATOM
      1 C8           0.0000     0.0000     0.0000 c3         1 8JG      -0.008700
      2 C7           1.5250     0.0000     0.0000 c3         1 8JG      -0.104400
      3 C6           2.0410     0.0000     1.3870 c3         1 8JG       0.163100
      4 C9          -0.5820    -0.5610    -1.3160 c3         1 8JG      -0.151000
      5 C10         -0.2370    -2.0660    -1.4610 c3         1 8JG      -0.058100
      6 C5           1.8260     1.3300     3.5950 c3         1 8JG      -0.087400
      7 C4           1.5220     1.2920     2.0930 c3         1 8JG      -0.045000
      8 O            3.6620     2.6950     4.3120 oh         1 8JG      -0.599800
      9 C1           2.2670     2.7100     3.9740 c3         1 8JG       0.160800
     10 C2           2.0760     3.5690     2.6950 c3         1 8JG      -0.084700
     11 C3           2.3950     2.5260     1.5340 c3         1 8JG      -0.065400
     12 C12         -2.0510    -0.4320    -1.3240 c3         1 8JG      -0.052400
     13 C17          0.0650     1.4920     1.9480 c3         1 8JG      -0.027700
     14 C18         -0.3250     2.8470     2.4970 c3         1 8JG      -0.074400
     15 C19          0.6050     3.9940     2.4140 c3         1 8JG      -0.060400
     16 C15         -0.4860     1.3270     0.5460 c3         1 8JG      -0.036000
     17 C14         -2.0460     1.2200     0.6040 c3         1 8JG      -0.074400
     18 C13         -2.5850     0.9180    -0.8080 c3         1 8JG      -0.076400
     19 C11         -0.0320     0.1630    -2.5360 c          1 8JG       0.899600
     20 O1           3.4980    -0.0970     1.4210 oh         1 8JG      -0.612800
     21 C            1.4320     3.2990     5.1480 c3         1 8JG      -0.120100
     22 H1          -0.2820    -0.7260     0.7530 hc         1 8JG      -0.001300
     23 H2           1.8820    -0.8850    -0.5130 hc         1 8JG       0.074700
     24 H3           1.8820     0.8850    -0.5130 hc         1 8JG       0.074700
     25 H4           1.6260    -0.8580     1.9030 h1         1 8JG       0.009700
     26 H5          -0.3940    -2.5660    -0.5120 hc         1 8JG       0.021367
     27 H6           0.7990    -2.1730    -1.7590 hc         1 8JG       0.021367
     28 H7          -0.8770    -2.5120    -2.2130 hc         1 8JG       0.021367
     29 H8           2.6140     0.6220     3.8230 hc         1 8JG       0.045700
     30 H9           0.9340     1.0690     4.1520 hc         1 8JG       0.045700
     31 H10          3.7610     2.8210     5.2410 ho         1 8JG       0.386000
     32 H11          2.7540     4.4130     2.6690 hc         1 8JG       0.055700
     33 H12          3.4500     2.2820     1.4970 hc         1 8JG       0.074700
     34 H13          2.0270     2.8720     0.5750 hc         1 8JG       0.074700
     35 H14         -2.4650    -1.2200    -0.7070 hc         1 8JG       0.034700
     36 H15         -2.3990    -0.5680    -2.3410 hc         1 8JG       0.034700
     37 H16         -0.4190     0.7470     2.5680 hc         1 8JG       0.034700
     38 H17          0.9520     2.4850    -0.5190 hc         1 8JG       0.045700
     39 H18         -0.6140     2.3360    -1.3280 hc         1 8JG       0.045700
     40 H19         -0.4390     3.4050     0.0710 hc         1 8JG       0.045700
     41 H20         -1.2370     3.1410     1.9930 hc         1 8JG       0.028200
     42 H21         -0.5630     2.7070     3.5440 hc         1 8JG       0.028200
     43 H22          0.3090     4.7410     3.1400 hc         1 8JG       0.036700
     44 H23          0.5460     4.4250     1.4210 hc         1 8JG       0.036700
     45 H24         -2.3280     0.4190     1.2760 hc         1 8JG       0.020700
     46 H25         -2.4590     2.1570     0.9550 hc         1 8JG       0.020700
     47 H26         -3.6670     0.8810    -0.7740 hc         1 8JG       0.036700
     48 H27         -2.2710     1.7050    -1.4830 hc         1 8JG       0.036700
     49 H29          3.7520    -1.0050     1.4540 ho         1 8JG       0.387000
     50 H30          1.7490     2.8470     6.0800 hc         1 8JG       0.037033
     51 H31          1.5830     4.3710     5.1970 hc         1 8JG       0.037033
     52 H32          0.3810     3.0900     4.9850 hc         1 8JG       0.037033
     53 C16         -0.1210     2.4690    -0.3720 c3         1 8JG      -0.078100
     54 O2           0.7650     1.0620    -2.3970 o          1 8JG      -0.846300
     55 O3          -0.4300    -0.1970    -3.7660 o          1 8JG      -0.846300
@<TRIPOS>BOND
     1    15    10 1   
     2    15    14 1   
     3    10    11 1   
     4    10     9 1   
     5    14    13 1   
     6    53    16 1   
     7    21     9 1   
     8    11     7 1   
     9     9     8 1   
    10     9     6 1   
    11    54    19 1   
    12    13    16 1   
    13    13     7 1   
    14    16    17 1   
    15    16     1 1   
    16    55    19 1   
    17    17    18 1   
    18     7     6 1   
    19     7     3 1   
    20    19     4 1   
    21    18    12 1   
    22     1     2 1   
    23     1     4 1   
    24     2     3 1   
    25     4    12 1   
    26     4     5 1   
    27     3    20 1   
    28     1    22 1   
    29     2    23 1   
    30     2    24 1   
    31     3    25 1   
    32     5    26 1   
    33     5    27 1   
    34     5    28 1   
    35     6    29 1   
    36     6    30 1   
    37     8    31 1   
    38    10    32 1   
    39    11    33 1   
    40    11    34 1   
    41    12    35 1   
    42    12    36 1   
    43    13    37 1   
    44    53    38 1   
    45    53    39 1   
    46    53    40 1   
    47    14    41 1   
    48    14    42 1   
    49    15    43 1   
    50    15    44 1   
    51    17    45 1   
    52    17    46 1   
    53    18    47 1   
    54    18    48 1   
    55    20    49 1   
    56    21    50 1   
    57    21    51 1   
    58    21    52 1   
@<TRIPOS>SUBSTRUCTURE
     1 8JG         1 TEMP              0 ****  ****    0 ROOT
