@<TRIPOS>MOLECULE
8JH
   62    62     1     0     0
SMALL
bcc


@<TRIPOS>ATOM
      1 C10          0.0000     0.0000     0.0000 c3         1 8JH      -0.057200
      2 C11         -7.4710    -1.5320     7.7270 c3         1 8JH       0.018800
      3 C12         -6.7880    -3.6200     8.7820 c          1 8JH       0.658100
      4 C13         -5.9600    -5.5940     9.8380 c3         1 8JH       0.298700
      5 C14         -6.4340    -6.9670    10.2380 ca         1 8JH      -0.101300
      6 C15         -6.3130    -8.0250     9.3560 ca         1 8JH      -0.077000
      7 C16         -6.7470    -9.2840     9.7240 ca         1 8JH      -0.113500
      8 C19         -6.9850    -7.1700    11.4890 ca         1 8JH      -0.077000
      9 P01         -7.0100    -1.5670     5.9630 p5         1 8JH       0.465500
     10 C01         -6.1950    -0.0020     4.0530 c3         1 8JH       0.132500
     11 N01         -6.6850    -0.0020     5.4380 n7         1 8JH      -0.571300
     12 O01         -5.6990    -2.4820     5.7690 o          1 8JH      -0.626500
     13 C02         -6.7060     1.2470     3.3310 c3         1 8JH      -0.030400
     14 N02         -4.0140    -0.0010     2.8850 ns         1 8JH      -0.251900
     15 O02         -4.0820    -0.0000     5.1020 o          1 8JH      -0.603100
     16 C03         -8.2330     1.1950     3.2410 c3         1 8JH      -0.048700
     17 N03          1.4690     0.0000     0.0000 nz         1 8JH       0.084400
     18 O03         -8.1260    -2.1310     5.1720 o          1 8JH      -0.626500
     19 C04         -8.7540     2.5090     2.6540 c3         1 8JH      -0.006600
     20 N04         -7.7540    -2.8950     8.1830 ns         1 8JH      -0.074900
     21 O04         -7.0480    -4.8720     9.2010 os         1 8JH      -0.434900
     22 C05         -8.6520     0.0320     2.3400 c3         1 8JH      -0.006600
     23 O05         -5.6820    -3.1430     8.9420 o          1 8JH      -0.662000
     24 C06         -4.6890    -0.0010     4.0530 c          1 8JH       0.569100
     25 C07         -2.5490    -0.0010     2.8850 c3         1 8JH       0.065000
     26 C08         -2.0400    -0.0010     1.4420 c3         1 8JH      -0.032400
     27 C09         -0.5100     0.0000     1.4430 c3         1 8JH      -0.030400
     28 C17         -7.3040    -9.4860    10.9730 ca         1 8JH      -0.105000
     29 C18         -7.4190    -8.4300    11.8580 ca         1 8JH      -0.113500
     30 H1          -0.3610     0.8850    -0.5110 hx         1 8JH       0.084200
     31 H2          -0.3610    -0.8850    -0.5110 hx         1 8JH       0.084200
     32 H3          -8.3540    -0.9170     7.8570 h1         1 8JH       0.030700
     33 H4          -6.6540    -1.1190     8.3060 h1         1 8JH       0.030700
     34 H5          -5.6350    -5.0530    10.7180 h1         1 8JH       0.011200
     35 H6          -5.1330    -5.6850     9.1440 h1         1 8JH       0.011200
     36 H7          -5.8770    -7.8670     8.3770 ha         1 8JH       0.108500
     37 H8          -6.6550   -10.1120     9.0320 ha         1 8JH       0.097500
     38 H9          -7.0750    -6.3420    12.1820 ha         1 8JH       0.108500
     39 H10         -6.5550    -0.8870     3.5420 h1         1 8JH       0.080700
     40 H11         -6.3530     0.6850     6.0860 hn         1 8JH       0.284800
     41 H12         -6.2860     1.2840     2.3330 hc         1 8JH      -0.004300
     42 H13         -6.4060     2.1300     3.8820 hc         1 8JH      -0.004300
     43 H14         -4.5140    -0.0300     2.0190 hn         1 8JH       0.174500
     44 H15         -8.6480     1.0530     4.2310 hc         1 8JH       0.061700
     45 H16          1.8030    -0.8170     0.4720 hn         1 8JH       0.221133
     46 H17          1.8030     0.0000    -0.9440 hn         1 8JH       0.221133
     47 H20         -9.8370     2.5040     2.6640 hc         1 8JH       0.001533
     48 H21         -8.4030     2.6130     1.6340 hc         1 8JH       0.001533
     49 H22         -8.3910     3.3390     3.2470 hc         1 8JH       0.001533
     50 H23         -8.6730    -3.2780     8.0780 hn         1 8JH       0.156500
     51 H24         -7.9040    -0.1160     1.5710 hc         1 8JH       0.001533
     52 H25         -9.6050     0.2590     1.8790 hc         1 8JH       0.001533
     53 H26         -8.7430    -0.8690     2.9340 hc         1 8JH       0.001533
     54 H27         -2.1880     0.8840     3.3950 h1         1 8JH       0.024200
     55 H28         -2.1880    -0.8850     3.3950 h1         1 8JH       0.024200
     56 H29         -2.4010     0.8830     0.9310 hc         1 8JH       0.025700
     57 H30         -2.4000    -0.8860     0.9310 hc         1 8JH       0.025700
     58 H31         -0.1480    -0.8840     1.9540 hc         1 8JH       0.036700
     59 H32         -0.1490     0.8850     1.9530 hc         1 8JH       0.036700
     60 H33         -7.6440   -10.4730    11.2610 ha         1 8JH       0.095000
     61 H34         -7.8530    -8.5890    12.8370 ha         1 8JH       0.097500
     62 H033         1.8030     0.8190     0.4690 hn         1 8JH       0.221133
@<TRIPOS>BOND
     1     1    17 1   
     2     1    27 1   
     3     1    30 1   
     4     1    31 1   
     5     2     9 1   
     6     2    20 1   
     7     2    32 1   
     8     2    33 1   
     9     3    20 1   
    10     3    21 1   
    11     3    23 2   
    12     4     5 1   
    13     4    21 1   
    14     4    34 1   
    15     4    35 1   
    16     5     6 ar  
    17     5     8 ar  
    18     6     7 ar  
    19     6    36 1   
    20     7    28 ar  
    21     7    37 1   
    22     8    29 ar  
    23     8    38 1   
    24     9    11 1   
    25     9    12 1   
    26     9    18 1   
    27    10    11 1   
    28    10    13 1   
    29    10    24 1   
    30    10    39 1   
    31    11    40 1   
    32    13    16 1   
    33    13    41 1   
    34    13    42 1   
    35    14    24 1   
    36    14    25 1   
    37    14    43 1   
    38    15    24 2   
    39    16    19 1   
    40    16    22 1   
    41    16    44 1   
    42    17    45 1   
    43    17    46 1   
    44    17    62 1   
    45    19    47 1   
    46    19    48 1   
    47    19    49 1   
    48    20    50 1   
    49    22    51 1   
    50    22    52 1   
    51    22    53 1   
    52    25    26 1   
    53    25    54 1   
    54    25    55 1   
    55    26    27 1   
    56    26    56 1   
    57    26    57 1   
    58    27    58 1   
    59    27    59 1   
    60    28    29 ar  
    61    28    60 1   
    62    29    61 1   
@<TRIPOS>SUBSTRUCTURE
     1 8JH         1 TEMP              0 ****  ****    0 ROOT
