@<TRIPOS>MOLECULE
8JL
   39    41     1     0     0
SMALL
bcc


@<TRIPOS>ATOM
      1 C4           0.0000     0.0000     0.0000 ca         1 8JL       0.209100
      2 C14          0.4680     3.9910     4.5520 ca         1 8JL      -0.085600
      3 C5           1.4100     0.0000     0.0000 ca         1 8JL      -0.088000
      4 C6           2.1040     0.0000     1.2360 ca         1 8JL       0.085000
      5 C11         -2.1100     0.0110    -1.0920 c3         1 8JL       0.242700
      6 C7           2.1390     0.0020    -1.2000 ca         1 8JL      -0.063000
      7 C8           3.5000     0.0020    -1.1610 ca         1 8JL      -0.130000
      8 C9           4.1830     0.0020     0.0530 ca         1 8JL      -0.073000
      9 C10          3.5100     0.0000     1.2360 ca         1 8JL      -0.121000
     10 C12          2.3900     2.6420     4.0270 ca         1 8JL      -0.003400
     11 C13          1.1390     2.7680     4.6070 ca         1 8JL      -0.129000
     12 N1           3.0660     1.4180     4.0800 nu         1 8JL      -0.380500
     13 C3          -0.6740    -0.0010     1.1890 ca         1 8JL      -0.259000
     14 C1           1.3750     0.0010     2.4360 ca         1 8JL      -0.185500
     15 C15          1.0600     5.0790     3.9070 ca         1 8JL      -0.060000
     16 C16          2.3070     4.9450     3.3310 ca         1 8JL      -0.152000
     17 C17          2.9750     3.7330     3.3910 ca         1 8JL       0.030900
     18 C2           0.0130    -0.0010     2.4010 ca         1 8JL       0.091000
     19 F1           4.1960     3.6090     2.8260 f          1 8JL      -0.149900
     20 O1          -0.6830     0.0070    -1.1730 os         1 8JL      -0.310900
     21 O2           3.1830    -1.0410     3.9140 o          1 8JL      -0.592800
     22 O3           1.2150     0.0620     4.9880 o          1 8JL      -0.592800
     23 O4          -1.3810     3.1840     5.7250 o          1 8JL      -0.877800
     24 O5          -1.5120     5.3150     5.1130 o          1 8JL      -0.877800
     25 S1           2.2180    -0.0010     3.9840 sy         1 8JL       1.040200
     26 H1          -2.4450    -0.8740    -0.5660 h1         1 8JL       0.000033
     27 H2          -2.4390     0.8950    -0.5580 h1         1 8JL       0.000033
     28 H3          -2.5280     0.0170    -2.0920 h1         1 8JL       0.000033
     29 H4           1.6220     0.0020    -2.1510 ha         1 8JL       0.108000
     30 H5           4.0600     0.0040    -2.0890 ha         1 8JL       0.095000
     31 H6           5.2660     0.0020     0.0560 ha         1 8JL       0.096000
     32 H7           4.0540    -0.0010     2.1730 ha         1 8JL       0.136000
     33 H8           0.6850     1.9210     5.1070 ha         1 8JL       0.189000
     34 H9           4.0560     1.4000     4.2250 hn         1 8JL       0.337800
     35 H10         -1.7570    -0.0020     1.1890 ha         1 8JL       0.128000
     36 H11          0.5410     6.0290     3.8600 ha         1 8JL       0.134000
     37 H12          2.7650     5.7910     2.8330 ha         1 8JL       0.100000
     38 H13         -0.5440    -0.0010     3.3300 ha         1 8JL       0.140000
     39 C18         -0.8660     4.1320     5.1680 c          1 8JL       0.969200
@<TRIPOS>BOND
     1     1     3 ar  
     2     1    13 ar  
     3     1    20 1   
     4     2    11 ar  
     5     2    15 ar  
     6     2    39 1   
     7     3     4 ar  
     8     3     6 ar  
     9     4     9 ar  
    10     4    14 ar  
    11     5    20 1   
    12     5    26 1   
    13     5    27 1   
    14     5    28 1   
    15     6     7 ar  
    16     6    29 1   
    17     7     8 ar  
    18     7    30 1   
    19     8     9 ar  
    20     8    31 1   
    21     9    32 1   
    22    10    11 ar  
    23    10    12 1   
    24    10    17 ar  
    25    11    33 1   
    26    12    25 1   
    27    12    34 1   
    28    13    18 ar  
    29    13    35 1   
    30    14    18 ar  
    31    14    25 1   
    32    15    16 ar  
    33    15    36 1   
    34    16    17 ar  
    35    16    37 1   
    36    17    19 1   
    37    18    38 1   
    38    21    25 2   
    39    22    25 2   
    40    23    39 1   
    41    24    39 1   
@<TRIPOS>SUBSTRUCTURE
     1 8JL         1 TEMP              0 ****  ****    0 ROOT
