@<TRIPOS>MOLECULE
molecule
   39    41     1     0     0
SMALL
bcc


@<TRIPOS>ATOM
      1 C4           0.0000     0.0000     0.0000 ca         1 8JL       0.199100
      2 C14          0.4680     3.9910     4.5520 ca         1 8JL      -0.091600
      3 C5           1.4100     0.0000     0.0000 ca         1 8JL      -0.074000
      4 C6           2.1040     0.0000     1.2360 ca         1 8JL       0.080000
      5 C11         -2.1100     0.0110    -1.0920 c3         1 8JL       0.125700
      6 C7           2.1390     0.0020    -1.2000 ca         1 8JL      -0.086000
      7 C8           3.5000     0.0020    -1.1610 ca         1 8JL      -0.156000
      8 C9           4.1830     0.0020     0.0530 ca         1 8JL      -0.097000
      9 C10          3.5100     0.0000     1.2360 ca         1 8JL      -0.138000
     10 C12          2.3900     2.6420     4.0270 ca         1 8JL       0.073600
     11 C13          1.1390     2.7680     4.6070 ca         1 8JL      -0.135000
     12 N1           3.0660     1.4180     4.0800 nu         1 8JL      -0.762500
     13 C3          -0.6740    -0.0010     1.1890 ca         1 8JL      -0.259000
     14 C1           1.3750     0.0010     2.4360 ca         1 8JL      -0.337500
     15 C15          1.0600     5.0790     3.9070 ca         1 8JL      -0.085000
     16 C16          2.3070     4.9450     3.3310 ca         1 8JL      -0.182000
     17 C17          2.9750     3.7330     3.3910 ca         1 8JL       0.076900
     18 C2           0.0130    -0.0010     2.4010 ca         1 8JL       0.053000
     19 F1           4.1960     3.6090     2.8260 f          1 8JL      -0.167900
     20 O1          -0.6830     0.0070    -1.1730 os         1 8JL      -0.330900
     21 O2           3.1830    -1.0410     3.9140 o          1 8JL      -0.642300
     22 O3           1.2150     0.0620     4.9880 o          1 8JL      -0.642300
     23 O4          -1.3810     3.1840     5.7250 o          1 8JL      -0.829300
     24 O5          -1.5120     5.3150     5.1130 o          1 8JL      -0.829300
     25 S1           2.2180    -0.0010     3.9840 sy         1 8JL       1.432200
     26 H1          -2.4450    -0.8740    -0.5660 h1         1 8JL       0.044700
     27 H2          -2.4390     0.8950    -0.5580 h1         1 8JL       0.044700
     28 H3          -2.5280     0.0170    -2.0920 h1         1 8JL       0.044700
     29 H4           1.6220     0.0020    -2.1510 ha         1 8JL       0.138000
     30 H5           4.0600     0.0040    -2.0890 ha         1 8JL       0.121000
     31 H6           5.2660     0.0020     0.0560 ha         1 8JL       0.125000
     32 H7           4.0540    -0.0010     2.1730 ha         1 8JL       0.149000
     33 H8           0.6850     1.9210     5.1070 ha         1 8JL       0.200000
     34 H9           4.0560     1.4000     4.2250 hn         1 8JL       0.454800
     35 H10         -1.7570    -0.0020     1.1890 ha         1 8JL       0.142000
     36 H11          0.5410     6.0290     3.8600 ha         1 8JL       0.163000
     37 H12          2.7650     5.7910     2.8330 ha         1 8JL       0.124000
     38 H13         -0.5440    -0.0010     3.3300 ha         1 8JL       0.172000
     39 C18         -0.8660     4.1320     5.1680 c          1 8JL       0.880200
@<TRIPOS>BOND
     1     7     8 ar  
     2     7     6 ar  
     3     8     9 ar  
     4     6     3 ar  
     5     9     4 ar  
     6     3     4 ar  
     7     3     1 ar  
     8     4    14 ar  
     9    20     1 1   
    10    20     5 1   
    11    21    25 2   
    12     1    13 ar  
    13    14    25 1   
    14    14    18 ar  
    15    25    12 1   
    16    25    22 2   
    17    19    17 1   
    18    13    18 ar  
    19    12    10 1   
    20    17    10 ar  
    21    17    16 ar  
    22    10    11 ar  
    23    16    15 ar  
    24    11     2 ar  
    25    15     2 ar  
    26     2    39 1   
    27    39    23 1   
    28    39    24 1   
    29     5    26 1   
    30     5    27 1   
    31     5    28 1   
    32     6    29 1   
    33     7    30 1   
    34     8    31 1   
    35     9    32 1   
    36    11    33 1   
    37    12    34 1   
    38    13    35 1   
    39    15    36 1   
    40    16    37 1   
    41    18    38 1   
@<TRIPOS>SUBSTRUCTURE
     1 8JL         1 TEMP              0 ****  ****    0 ROOT
