@<TRIPOS>MOLECULE
8JM
   43    46     1     0     0
SMALL
bcc


@<TRIPOS>ATOM
      1 C7           0.0000     0.0000     0.0000 ca         1 8JM       0.508200
      2 C9          -2.1990    -0.0000     1.2020 cp         1 8JM      -0.033000
      3 C2          -0.7400    -0.0020     3.7280 c3         1 8JM      -0.013100
      4 C10         -2.8950    -1.1110     0.7270 ca         1 8JM      -0.071500
      5 C4           1.3840    -0.0010     2.3580 cp         1 8JM      -0.150300
      6 C1          -0.8650    -1.4380     4.2410 c3         1 8JM       0.010900
      7 C3          -0.0130    -0.0010     2.4080 ca         1 8JM      -0.027300
      8 C5           2.0190     0.0000     1.1200 ca         1 8JM       0.417200
      9 N6           1.3240     0.0000     0.0000 nb         1 8JM      -0.595000
     10 C8          -0.7160    -0.0000     1.2060 cp         1 8JM      -0.154300
     11 C11         -4.2750    -1.1090     0.7230 ca         1 8JM      -0.138500
     12 C12         -4.9690    -0.0020     1.1920 ca         1 8JM       0.123100
     13 C13         -4.2780     1.1050     1.6650 ca         1 8JM      -0.138500
     14 C14         -2.8990     1.1120     1.6650 ca         1 8JM      -0.071500
     15 O15         -6.3280    -0.0010     1.1870 oh         1 8JM      -0.500100
     16 N16         -0.6860     0.0060    -1.2070 nv         1 8JM      -0.653500
     17 C17          2.1790    -0.0000     3.6110 cp         1 8JM      -0.073000
     18 C18          1.9800     1.0050     4.5650 ca         1 8JM      -0.053000
     19 C19          2.7010     1.0210     5.7210 ca         1 8JM      -0.120000
     20 C20          3.6500     0.0310     5.9680 ca         1 8JM      -0.183200
     21 C21          3.8610    -0.9870     5.0170 ca         1 8JM      -0.266900
     22 C22          3.1140    -0.9990     3.8360 ca         1 8JM      -0.004000
     23 C23          4.9020    -1.8520     5.5650 cc         1 8JM       0.440800
     24 N24          5.2500    -1.3680     6.7230 nd         1 8JM      -0.634100
     25 N25          4.5090    -0.2170     7.0070 na         1 8JM       0.413900
     26 H1          -1.7280     0.4220     3.5970 hc         1 8JM       0.035200
     27 H2          -0.1850     0.5910     4.4460 hc         1 8JM       0.035200
     28 H3          -2.3540    -1.9750     0.3610 ha         1 8JM       0.109500
     29 H4          -0.4180    -2.1170     3.5240 hc         1 8JM       0.005033
     30 H5          -1.9120    -1.6850     4.3690 hc         1 8JM       0.005033
     31 H6          -0.3540    -1.5280     5.1910 hc         1 8JM       0.005033
     32 H7           3.1020    -0.0000     1.0760 h4         1 8JM      -0.016900
     33 H8          -4.8160    -1.9710     0.3540 ha         1 8JM       0.114000
     34 H9          -4.8230     1.9690     2.0280 ha         1 8JM       0.114000
     35 H10         -2.3610     1.9760     2.0350 ha         1 8JM       0.109500
     36 H11         -6.6450    -0.3540     2.0010 ho         1 8JM       0.402000
     37 H12         -0.8250    -0.8490    -1.7070 hn         1 8JM       0.277300
     38 H13         -0.9930     0.8730    -1.6030 hn         1 8JM       0.277300
     39 H14          1.2520     1.7850     4.3770 ha         1 8JM       0.113000
     40 H15          2.5360     1.8060     6.4500 ha         1 8JM       0.105000
     41 H16          3.3600    -1.6990     3.0460 ha         1 8JM       0.109000
     42 H17          5.3110    -2.7370     5.0940 h4         1 8JM       0.015800
     43 H26          4.5930     0.3360     7.8370 hn         1 8JM       0.152700
@<TRIPOS>BOND
     1     1     9 ar  
     2     1    10 ar  
     3     1    16 1   
     4     2     4 ar  
     5     2    10 1   
     6     2    14 ar  
     7     3     6 1   
     8     3     7 1   
     9     3    26 1   
    10     3    27 1   
    11     4    11 ar  
    12     4    28 1   
    13     5     7 ar  
    14     5     8 ar  
    15     5    17 1   
    16     6    29 1   
    17     6    30 1   
    18     6    31 1   
    19     7    10 ar  
    20     8     9 ar  
    21     8    32 1   
    22    11    12 ar  
    23    11    33 1   
    24    12    13 ar  
    25    12    15 1   
    26    13    14 ar  
    27    13    34 1   
    28    14    35 1   
    29    15    36 1   
    30    16    37 1   
    31    16    38 1   
    32    17    18 ar  
    33    17    22 ar  
    34    18    19 ar  
    35    18    39 1   
    36    19    20 ar  
    37    19    40 1   
    38    20    21 ar  
    39    20    25 1   
    40    21    22 ar  
    41    21    23 1   
    42    22    41 1   
    43    23    24 2   
    44    23    42 1   
    45    24    25 1   
    46    25    43 1   
@<TRIPOS>SUBSTRUCTURE
     1 8JM         1 TEMP              0 ****  ****    0 ROOT
