@<TRIPOS>MOLECULE
molecule
   56    60     1     0     0
SMALL
bcc


@<TRIPOS>ATOM
      1 C10          0.0000     0.0000     0.0000 c2         1 8JN      -0.217200
      2 C13          1.3260    -0.0860    -2.4050 cc         1 8JN       0.498200
      3 C14          2.0440    -0.1870    -3.5910 cd         1 8JN      -0.362200
      4 C16         -0.0970    -0.0270    -4.0340 cd         1 8JN       0.497800
      5 C18         -1.4060     0.0560    -4.7750 c3         1 8JN      -0.098300
      6 C21         -3.5600     1.0670    -4.0900 c3         1 8JN      -0.081400
      7 C22         -2.6530    -0.1800    -3.8720 c3         1 8JN      -0.051700
      8 C23         -3.4600    -1.3140    -4.5720 c3         1 8JN      -0.081400
      9 C24         -3.0970    -1.0640    -6.0610 c3         1 8JN      -0.071700
     10 C25         -1.5370    -0.9750    -5.9350 c3         1 8JN      -0.075400
     11 C26         -3.6430     0.3060    -6.4760 c3         1 8JN      -0.066400
     12 C27          3.4500    -0.3030    -3.5350 c          1 8JN       0.747100
     13 C01          8.2980     2.2400    -2.2600 c3         1 8JN      -0.090100
     14 C02          7.6730     0.8440    -2.2310 c3         1 8JN      -0.080400
     15 C03          6.1500     0.9660    -2.2990 c3         1 8JN      -0.101400
     16 N05          4.0640    -0.3110    -2.3350 n          1 8JN      -0.464400
     17 C06          3.3580    -0.2120    -1.1950 c          1 8JN       0.821500
     18 O07          3.9460    -0.2240    -0.1310 o          1 8JN      -0.647500
     19 N08          2.0160    -0.1010    -1.2030 n          1 8JN      -0.320500
     20 C09          1.3190     0.0000     0.0000 c2         1 8JN      -0.037400
     21 C11         -0.7530     0.0000     1.3050 c3         1 8JN       0.189600
     22 O12         -1.8170     0.9520     1.2410 oh         1 8JN      -0.603800
     23 N15          1.1150    -0.1470    -4.6100 na         1 8JN      -0.236900
     24 N17          0.0350     0.0040    -2.7320 nc         1 8JN      -0.719000
     25 C19         -1.6510     1.4300    -5.4650 c3         1 8JN      -0.075400
     26 C20         -3.2030     1.4450    -5.5530 c3         1 8JN      -0.071700
     27 H1          -0.5410    -0.0790    -0.9350 ha         1 8JN       0.192000
     28 H2          -4.6080     0.8050    -4.0010 hc         1 8JN       0.052200
     29 H3          -3.2950     1.8640    -3.4070 hc         1 8JN       0.052200
     30 H4          -2.4190    -0.3810    -2.8330 hc         1 8JN       0.095700
     31 H5          -4.5230    -1.1930    -4.4050 hc         1 8JN       0.052200
     32 H6          -3.1200    -2.2900    -4.2480 hc         1 8JN       0.052200
     33 H7          -3.4210    -1.8670    -6.7120 hc         1 8JN       0.067200
     34 H8          -1.0920    -0.5960    -6.8470 hc         1 8JN       0.051700
     35 H9          -1.1120    -1.9320    -5.6570 hc         1 8JN       0.051700
     36 H10         -4.7250     0.2610    -6.4790 hc         1 8JN       0.042700
     37 H11         -3.3020     0.5240    -7.4810 hc         1 8JN       0.042700
     38 H12          9.3770     2.1540    -2.2120 hc         1 8JN       0.034700
     39 H13          8.0170     2.7430    -3.1770 hc         1 8JN       0.034700
     40 H14          7.9440     2.8120    -1.4110 hc         1 8JN       0.034700
     41 H15          7.9550     0.3410    -1.3140 hc         1 8JN       0.042700
     42 H16          8.0280     0.2730    -3.0810 hc         1 8JN       0.042700
     43 H17          5.8680     1.4700    -3.2160 hc         1 8JN       0.055700
     44 H18          5.7910     1.5350    -1.4500 hc         1 8JN       0.055700
     45 H19          5.8770    -1.0010    -3.1200 h1         1 8JN       0.078200
     46 H20          5.8040    -0.9330    -1.3530 h1         1 8JN       0.078200
     47 H21          1.8600     0.0000     0.9390 h4         1 8JN       0.174000
     48 H22         -0.0790     0.2650     2.1110 h1         1 8JN       0.024200
     49 H23         -1.1620    -0.9870     1.4860 h1         1 8JN       0.024200
     50 H24         -2.2800     0.9610     2.0630 ho         1 8JN       0.400000
     51 H25          1.3150    -0.0430    -5.5850 hn         1 8JN       0.322700
     52 H27         -1.2050     1.4550    -6.4520 hc         1 8JN       0.051700
     53 H28         -1.2890     2.2450    -4.8490 hc         1 8JN       0.051700
     54 H29         -3.5990     2.4100    -5.8470 hc         1 8JN       0.067200
     55 O28          4.1020    -0.3930    -4.5620 o          1 8JN      -0.634500
     56 C04          5.5230    -0.4290    -2.2700 c3         1 8JN       0.112000
@<TRIPOS>BOND
     1    22    21 1   
     2    21     1 1   
     3     1    20 2   
     4    13    14 1   
     5    20    19 1   
     6    10     9 1   
     7    10     5 1   
     8    14    15 1   
     9     9    11 1   
    10     9     8 1   
    11    11    26 1   
    12    25     5 1   
    13    25    26 1   
    14    19     2 1   
    15    19    17 1   
    16    24     2 1   
    17    24     4 2   
    18    18    17 2   
    19     2     3 2   
    20    17    16 1   
    21     5     4 1   
    22     5     7 1   
    23     4    23 1   
    24    15    56 1   
    25    26     6 1   
    26     3    23 1   
    27     3    12 1   
    28    16    12 1   
    29    16    56 1   
    30     8     7 1   
    31    12    55 2   
    32     7     6 1   
    33     1    27 1   
    34     6    28 1   
    35     6    29 1   
    36     7    30 1   
    37     8    31 1   
    38     8    32 1   
    39     9    33 1   
    40    10    34 1   
    41    10    35 1   
    42    11    36 1   
    43    11    37 1   
    44    13    38 1   
    45    13    39 1   
    46    13    40 1   
    47    14    41 1   
    48    14    42 1   
    49    15    43 1   
    50    15    44 1   
    51    56    45 1   
    52    56    46 1   
    53    20    47 1   
    54    21    48 1   
    55    21    49 1   
    56    22    50 1   
    57    23    51 1   
    58    25    52 1   
    59    25    53 1   
    60    26    54 1   
@<TRIPOS>SUBSTRUCTURE
     1 8JN         1 TEMP              0 ****  ****    0 ROOT
