@<TRIPOS>MOLECULE
8JN
   56    62     1     0     0
SMALL
bcc


@<TRIPOS>ATOM
      1 C10          0.0000     0.0000     0.0000 c2         1 8JN      -0.388000
      2 C13          1.3260    -0.0860    -2.4050 c2         1 8JN      -0.122000
      3 C14          2.0440    -0.1870    -3.5910 c2         1 8JN      -0.451000
      4 C16         -0.0970    -0.0270    -4.0340 c2         1 8JN      -0.213000
      5 C18         -1.4060     0.0560    -4.7750 c3         1 8JN       0.011000
      6 C21         -3.5600     1.0670    -4.0900 c3         1 8JN      -0.109500
      7 C22         -2.6530    -0.1800    -3.8720 c3         1 8JN      -0.072000
      8 C23         -3.4600    -1.3140    -4.5720 c3         1 8JN      -0.109500
      9 C24         -3.0970    -1.0640    -6.0610 c3         1 8JN      -0.081000
     10 C25         -1.5370    -0.9750    -5.9350 c3         1 8JN      -0.108500
     11 C26         -3.6430     0.3060    -6.4760 c3         1 8JN      -0.089000
     12 C27          3.4500    -0.3030    -3.5350 c2         1 8JN       0.320000
     13 C01          8.2980     2.2400    -2.2610 c3         1 8JN      -0.111000
     14 C02          7.6730     0.8440    -2.2320 c3         1 8JN      -0.099000
     15 C03          6.1500     0.9660    -2.2990 c3         1 8JN      -0.128000
     16 N05          4.0640    -0.3110    -2.3350 n          1 8JN       0.084000
     17 C06          3.3580    -0.2120    -1.1950 c2         1 8JN       0.187000
     18 O07          3.9460    -0.2240    -0.1310 o          1 8JN      -0.383000
     19 N08          2.0160    -0.1010    -1.2030 nx         1 8JN       0.182000
     20 C09          1.3190     0.0000     0.0000 c2         1 8JN      -0.057000
     21 C11         -0.7530     0.0000     1.3050 DU         1 8JN       0.273000
     22 O12         -1.8170     0.9520     1.2410 oh         1 8JN      -0.336000
     23 N15          1.1150    -0.1470    -4.6100 na         1 8JN       0.479000
     24 N17          0.0350     0.0040    -2.7320 n2         1 8JN      -0.020000
     25 C19         -1.6510     1.4300    -5.4650 c3         1 8JN      -0.108500
     26 C20         -3.2030     1.4450    -5.5530 c3         1 8JN      -0.081000
     27 H1          -0.1800     0.9080     0.5630 DU         1 8JN       0.114000
     28 H2          -4.6080     0.8050    -4.0010 hc         1 8JN       0.063250
     29 H3          -3.2950     1.8640    -3.4070 hc         1 8JN       0.063250
     30 H4          -2.4190    -0.3810    -2.8330 hc         1 8JN       0.116000
     31 H5          -3.1200    -2.2900    -4.2480 hc         1 8JN       0.063250
     32 H6          -4.5230    -1.1930    -4.4050 hc         1 8JN       0.063250
     33 H7          -3.4210    -1.8670    -6.7120 hc         1 8JN       0.076500
     34 H8          -1.1120    -1.9320    -5.6570 hc         1 8JN       0.061000
     35 H9          -1.0920    -0.5960    -6.8470 hc         1 8JN       0.061000
     36 H10         -3.3020     0.5240    -7.4810 hc         1 8JN       0.053000
     37 H11         -4.7250     0.2610    -6.4790 hc         1 8JN       0.053000
     38 H12          9.3770     2.1540    -2.2140 hc         1 8JN       0.040667
     39 H13          7.9450     2.8120    -1.4120 hc         1 8JN       0.040667
     40 H14          8.0160     2.7430    -3.1790 hc         1 8JN       0.040667
     41 H15          8.0270     0.2720    -3.0810 hc         1 8JN       0.054000
     42 H16          7.9560     0.3410    -1.3150 hc         1 8JN       0.054000
     43 H17          5.7960     1.5380    -1.4500 hc         1 8JN       0.065000
     44 H18          5.8670     1.4690    -3.2160 hc         1 8JN       0.065000
     45 H19          5.8770    -1.0010    -3.1200 h1         1 8JN       0.090000
     46 H20          5.8040    -0.9330    -1.3530 h1         1 8JN       0.090000
     47 H21          1.4990     0.8570    -0.6370 DU         1 8JN       0.168000
     48 H22         -0.0790     0.2650     2.1110 ha         1 8JN       0.019000
     49 H23         -1.1620    -0.9870     1.4860 ha         1 8JN       0.019000
     50 H24         -2.4130     0.8050     1.9570 ho         1 8JN       0.198000
     51 H25          1.3150    -0.0430    -5.5850 hn         1 8JN       0.083000
     52 H27         -1.2890     2.2450    -4.8490 hc         1 8JN       0.061000
     53 H28         -1.2050     1.4550    -6.4520 hc         1 8JN       0.061000
     54 H29         -3.5990     2.4100    -5.8470 hc         1 8JN       0.076500
     55 O28          4.1020    -0.3930    -4.5620 o          1 8JN      -0.401000
     56 C04          5.5230    -0.4290    -2.2700 c3         1 8JN      -0.080000
@<TRIPOS>BOND
     1     1    20 1   
     2     1    21 1   
     3     1    27 1   
     4     2     3 1   
     5     2    19 1   
     6     2    24 1   
     7     3    12 1   
     8     3    23 1   
     9     4     5 1   
    10     4    23 1   
    11     4    24 1   
    12     5     7 1   
    13     5    10 1   
    14     5    25 1   
    15     6     7 1   
    16     6    26 1   
    17     6    28 1   
    18     6    29 1   
    19     7     8 1   
    20     7    30 1   
    21     8     9 1   
    22     8    31 1   
    23     8    32 1   
    24     9    10 1   
    25     9    11 1   
    26     9    33 1   
    27    10    34 1   
    28    10    35 1   
    29    11    26 1   
    30    11    36 1   
    31    11    37 1   
    32    12    16 1   
    33    12    55 1   
    34    13    14 1   
    35    13    38 1   
    36    13    39 1   
    37    13    40 1   
    38    14    15 1   
    39    14    41 1   
    40    14    42 1   
    41    15    43 1   
    42    15    44 1   
    43    15    56 1   
    44    16    17 1   
    45    16    56 1   
    46    17    18 1   
    47    17    19 1   
    48    19    20 1   
    49    19    47 1   
    50    20    47 1   
    51    21    22 1   
    52    21    27 1   
    53    21    48 1   
    54    21    49 1   
    55    22    50 1   
    56    23    51 1   
    57    25    26 1   
    58    25    52 1   
    59    25    53 1   
    60    26    54 1   
    61    45    56 1   
    62    46    56 1   
@<TRIPOS>SUBSTRUCTURE
     1 8JN         1 TEMP              0 ****  ****    0 ROOT
