@<TRIPOS>MOLECULE
8JO
   39    41     1     0     0
SMALL
bcc


@<TRIPOS>ATOM
      1 C4           0.0000     0.0000     0.0000 ca         1 8JO       0.220100
      2 C14          2.1530    -4.8890     3.2160 ca         1 8JO      -0.121600
      3 C5           1.4100     0.0000     0.0000 ca         1 8JO      -0.083000
      4 C6           2.1040     0.0000     1.2350 ca         1 8JO       0.087000
      5 C11         -2.1100     0.0110    -1.0930 c3         1 8JO       0.244700
      6 C7           2.1400     0.0010    -1.1990 ca         1 8JO      -0.061000
      7 C8           3.5010     0.0020    -1.1610 ca         1 8JO      -0.118000
      8 C9           4.1830     0.0010     0.0540 ca         1 8JO      -0.060000
      9 C10          3.5100     0.0000     1.2370 ca         1 8JO      -0.123000
     10 C12          2.3820    -2.6440     4.0530 ca         1 8JO      -0.014400
     11 C13          2.8360    -3.6700     3.2410 ca         1 8JO      -0.058000
     12 N1           3.0620    -1.4220     4.0800 nu         1 8JO      -0.380500
     13 C3          -0.6740    -0.0010     1.1890 ca         1 8JO      -0.272000
     14 C1           1.3730    -0.0000     2.4370 ca         1 8JO      -0.175500
     15 C15          1.0140    -5.0620     4.0080 ca         1 8JO       0.129900
     16 C16          0.5710    -4.0290     4.8150 ca         1 8JO      -0.160000
     17 C17          1.2510    -2.8280     4.8410 ca         1 8JO      -0.150000
     18 C2           0.0130    -0.0010     2.4000 ca         1 8JO       0.076000
     19 F1           0.3470    -6.2360     3.9850 f          1 8JO      -0.120900
     20 O1          -0.6830     0.0060    -1.1740 os         1 8JO      -0.305900
     21 O2           1.2120    -0.0640     4.9870 o          1 8JO      -0.608300
     22 O3           3.1840     1.0370     3.9150 o          1 8JO      -0.608300
     23 O4           2.0360    -7.0460     2.3330 o          1 8JO      -0.874800
     24 O5           3.7250    -5.8150     1.5870 o          1 8JO      -0.874800
     25 S1           2.2160    -0.0020     3.9830 sy         1 8JO       1.039200
     26 H1          -2.4380     0.8950    -0.5600 h1         1 8JO      -0.001967
     27 H2          -2.4460    -0.8740    -0.5670 h1         1 8JO      -0.001967
     28 H3          -2.5280     0.0170    -2.0930 h1         1 8JO      -0.001967
     29 H4           1.6220     0.0020    -2.1510 ha         1 8JO       0.109000
     30 H5           4.0610     0.0030    -2.0880 ha         1 8JO       0.098000
     31 H6           5.2670     0.0010     0.0570 ha         1 8JO       0.099000
     32 H7           4.0540    -0.0000     2.1740 ha         1 8JO       0.134000
     33 H8           3.7190    -3.5290     2.6290 ha         1 8JO       0.137000
     34 H9           4.0540    -1.4050     4.2100 hn         1 8JO       0.339800
     35 H10         -1.7570    -0.0020     1.1890 ha         1 8JO       0.121000
     36 H11         -0.3100    -4.1650     5.4300 ha         1 8JO       0.102000
     37 H12          0.8990    -2.0230     5.4750 ha         1 8JO       0.147000
     38 H13         -0.5450    -0.0020     3.3280 ha         1 8JO       0.122000
     39 C18          2.6310    -5.9860     2.3530 c          1 8JO       0.971200
@<TRIPOS>BOND
     1     1     3 ar  
     2     1    13 ar  
     3     1    20 1   
     4     2    11 ar  
     5     2    15 ar  
     6     2    39 1   
     7     3     4 ar  
     8     3     6 ar  
     9     4     9 ar  
    10     4    14 ar  
    11     5    20 1   
    12     5    26 1   
    13     5    27 1   
    14     5    28 1   
    15     6     7 ar  
    16     6    29 1   
    17     7     8 ar  
    18     7    30 1   
    19     8     9 ar  
    20     8    31 1   
    21     9    32 1   
    22    10    11 ar  
    23    10    12 1   
    24    10    17 ar  
    25    11    33 1   
    26    12    25 1   
    27    12    34 1   
    28    13    18 ar  
    29    13    35 1   
    30    14    18 ar  
    31    14    25 1   
    32    15    16 ar  
    33    15    19 1   
    34    16    17 ar  
    35    16    36 1   
    36    17    37 1   
    37    18    38 1   
    38    21    25 2   
    39    22    25 2   
    40    23    39 1   
    41    24    39 1   
@<TRIPOS>SUBSTRUCTURE
     1 8JO         1 TEMP              0 ****  ****    0 ROOT
