@<TRIPOS>MOLECULE
molecule
   39    41     1     0     0
SMALL
bcc


@<TRIPOS>ATOM
      1 C4           0.0000     0.0000     0.0000 ca         1 8JO       0.209100
      2 C14          2.1530    -4.8890     3.2160 ca         1 8JO      -0.131600
      3 C5           1.4100     0.0000     0.0000 ca         1 8JO      -0.070000
      4 C6           2.1040     0.0000     1.2350 ca         1 8JO       0.082000
      5 C11         -2.1100     0.0110    -1.0930 c3         1 8JO       0.127700
      6 C7           2.1400     0.0010    -1.1990 ca         1 8JO      -0.084000
      7 C8           3.5010     0.0020    -1.1610 ca         1 8JO      -0.146000
      8 C9           4.1830     0.0010     0.0540 ca         1 8JO      -0.086000
      9 C10          3.5100     0.0000     1.2370 ca         1 8JO      -0.140000
     10 C12          2.3820    -2.6440     4.0530 ca         1 8JO       0.067600
     11 C13          2.8360    -3.6700     3.2410 ca         1 8JO      -0.075000
     12 N1           3.0620    -1.4220     4.0800 nu         1 8JO      -0.763500
     13 C3          -0.6740    -0.0010     1.1890 ca         1 8JO      -0.270000
     14 C1           1.3730    -0.0000     2.4370 ca         1 8JO      -0.330500
     15 C15          1.0140    -5.0620     4.0080 ca         1 8JO       0.152900
     16 C16          0.5710    -4.0290     4.8150 ca         1 8JO      -0.192000
     17 C17          1.2510    -2.8280     4.8410 ca         1 8JO      -0.155000
     18 C2           0.0130    -0.0010     2.4000 ca         1 8JO       0.041000
     19 F1           0.3470    -6.2360     3.9850 f          1 8JO      -0.121900
     20 O1          -0.6830     0.0060    -1.1740 os         1 8JO      -0.324900
     21 O2           1.2120    -0.0640     4.9870 o          1 8JO      -0.656800
     22 O3           3.1840     1.0370     3.9150 o          1 8JO      -0.656800
     23 O4           2.0360    -7.0460     2.3330 o          1 8JO      -0.825300
     24 O5           3.7250    -5.8150     1.5870 o          1 8JO      -0.825300
     25 S1           2.2160    -0.0020     3.9830 sy         1 8JO       1.434200
     26 H1          -2.4380     0.8950    -0.5600 h1         1 8JO       0.043033
     27 H2          -2.4460    -0.8740    -0.5670 h1         1 8JO       0.043033
     28 H3          -2.5280     0.0170    -2.0930 h1         1 8JO       0.043033
     29 H4           1.6220     0.0020    -2.1510 ha         1 8JO       0.139000
     30 H5           4.0610     0.0030    -2.0880 ha         1 8JO       0.126000
     31 H6           5.2670     0.0010     0.0570 ha         1 8JO       0.130000
     32 H7           4.0540    -0.0000     2.1740 ha         1 8JO       0.148000
     33 H8           3.7190    -3.5290     2.6290 ha         1 8JO       0.165000
     34 H9           4.0540    -1.4050     4.2100 hn         1 8JO       0.457800
     35 H10         -1.7570    -0.0020     1.1890 ha         1 8JO       0.133000
     36 H11         -0.3100    -4.1650     5.4300 ha         1 8JO       0.126000
     37 H12          0.8990    -2.0230     5.4750 ha         1 8JO       0.157000
     38 H13         -0.5450    -0.0020     3.3280 ha         1 8JO       0.152000
     39 C18          2.6310    -5.9860     2.3530 c          1 8JO       0.881200
@<TRIPOS>BOND
     1     7     8 ar
     2     7     6 ar
     3     8     9 ar
     4     6     3 ar
     5     9     4 ar
     6     3     4 ar
     7     3     1 ar
     8     4    14 ar
     9    20     1 1
    10    20     5 1
    11    21    25 2
    12     1    13 ar
    13    14    25 1
    14    14    18 ar
    15    25    12 1
    16    25    22 2
    17    13    18 ar
    18    12    10 1
    19    17    10 ar
    20    17    16 ar
    21    10    11 ar
    22    16    15 ar
    23    11     2 ar
    24    15     2 ar
    25    15    19 1
    26     2    39 1
    27    39    23 1
    28    39    24 1
    29     5    26 1
    30     5    27 1
    31     5    28 1
    32     6    29 1
    33     7    30 1
    34     8    31 1
    35     9    32 1
    36    11    33 1
    37    12    34 1
    38    13    35 1
    39    16    36 1
    40    17    37 1
    41    18    38 1
@<TRIPOS>SUBSTRUCTURE
     1 8JO         1 TEMP              0 ****  ****    0 ROOT
