@<TRIPOS>MOLECULE
8JP
   46    48     1     0     0
SMALL
bcc


@<TRIPOS>ATOM
      1 C4           0.0000     0.0000     0.0000 cp         1 8JP      -0.228300
      2 C14         -0.4640     1.0980     4.5720 ca         1 8JP      -0.077500
      3 C5           1.3940     0.0000     0.0000 ca         1 8JP       0.469200
      4 C11         -2.0060    -1.0820     5.3360 ca         1 8JP      -0.137500
      5 C7           1.4670     0.0010     2.3080 ca         1 8JP       0.525200
      6 C8           0.0660     0.0060     2.3940 cp         1 8JP      -0.221300
      7 C9          -0.6060     0.0070     3.7160 cp         1 8JP      -0.037000
      8 C10         -1.3810    -1.0850     4.1060 ca         1 8JP      -0.077500
      9 C12         -1.8570     0.0040     6.1880 ca         1 8JP       0.125100
     10 C13         -1.0860     1.0920     5.8030 ca         1 8JP      -0.137500
     11 C3          -0.6820     0.0060     1.2210 ca         1 8JP       0.024700
     12 C1          -2.6920     1.4570     1.2760 c3         1 8JP       0.011900
     13 C2          -2.1880     0.0130     1.2640 c3         1 8JP      -0.027100
     14 N6           2.0710     0.0000     1.1310 nb         1 8JP      -0.650000
     15 O15         -2.4740     0.0040     7.3990 oh         1 8JP      -0.499100
     16 N16          2.2260     0.0000     3.4690 nv         1 8JP      -0.544500
     17 C17         -0.7500     0.0010    -1.2780 cp         1 8JP      -0.100300
     18 C18         -0.4400     0.9240    -2.2810 ca         1 8JP      -0.084000
     19 C19         -1.1670     0.8880    -3.4560 ca         1 8JP      -0.143300
     20 C20         -2.1770    -0.0640    -3.6020 ca         1 8JP       0.305800
     21 N21         -2.4450    -0.9260    -2.6270 nb         1 8JP      -0.571000
     22 C22         -1.7720    -0.9250    -1.5000 ca         1 8JP       0.383200
     23 C23         -2.9600    -0.1120    -4.8560 c          1 8JP       0.483600
     24 O24         -2.7210     0.6740    -5.7520 o          1 8JP      -0.655100
     25 N25         -3.9390    -1.0270    -5.0040 ns         1 8JP      -0.174900
     26 C26         -4.7130    -1.0740    -6.2470 c3         1 8JP       0.083300
     27 H1           0.1370     1.9480     4.2730 ha         1 8JP       0.112000
     28 H2           1.9280    -0.0030    -0.9430 h4         1 8JP      -0.018900
     29 H3          -2.6080    -1.9300     5.6390 ha         1 8JP       0.116000
     30 H4          -1.4960    -1.9340     3.4420 ha         1 8JP       0.112000
     31 H5          -0.9740     1.9390     6.4690 ha         1 8JP       0.116000
     32 H6          -3.3180     1.6290     0.4080 hc         1 8JP       0.006367
     33 H7          -3.2680     1.6320     2.1760 hc         1 8JP       0.006367
     34 H8          -1.8470     2.1350     1.2510 hc         1 8JP       0.006367
     35 H9          -2.5770    -0.4980     0.3920 hc         1 8JP       0.039200
     36 H10         -2.5260    -0.4940     2.1600 hc         1 8JP       0.039200
     37 H11         -1.9000    -0.3740     8.0450 ho         1 8JP       0.403000
     38 H12          1.8750    -0.4400     4.2960 hn         1 8JP       0.274800
     39 H13          3.1500     0.3840     3.4610 hn         1 8JP       0.274800
     40 H14          0.3500     1.6520    -2.1400 ha         1 8JP       0.119000
     41 H15         -0.9530     1.5880    -4.2550 ha         1 8JP       0.138000
     42 H16         -2.0200    -1.6440    -0.7280 h4         1 8JP      -0.004900
     43 H17         -4.1140    -1.6940    -4.2790 hn         1 8JP       0.188500
     44 H18         -4.0490    -1.2670    -7.0800 h1         1 8JP       0.009033
     45 H19         -5.4510    -1.8650    -6.1830 h1         1 8JP       0.009033
     46 H20         -5.2140    -0.1250    -6.3970 h1         1 8JP       0.009033
@<TRIPOS>BOND
     1     1     3 ar  
     2     1    11 ar  
     3     1    17 1   
     4     2     7 ar  
     5     2    10 ar  
     6     2    27 1   
     7     3    14 ar  
     8     3    28 1   
     9     4     8 ar  
    10     4     9 ar  
    11     4    29 1   
    12     5     6 ar  
    13     5    14 ar  
    14     5    16 1   
    15     6     7 1   
    16     6    11 ar  
    17     7     8 ar  
    18     8    30 1   
    19     9    10 ar  
    20     9    15 1   
    21    10    31 1   
    22    11    13 1   
    23    12    13 1   
    24    12    32 1   
    25    12    33 1   
    26    12    34 1   
    27    13    35 1   
    28    13    36 1   
    29    15    37 1   
    30    16    38 1   
    31    16    39 1   
    32    17    18 ar  
    33    17    22 ar  
    34    18    19 ar  
    35    18    40 1   
    36    19    20 ar  
    37    19    41 1   
    38    20    21 ar  
    39    20    23 1   
    40    21    22 ar  
    41    22    42 1   
    42    23    24 2   
    43    23    25 1   
    44    25    26 1   
    45    25    43 1   
    46    26    44 1   
    47    26    45 1   
    48    26    46 1   
@<TRIPOS>SUBSTRUCTURE
     1 8JP         1 TEMP              0 ****  ****    0 ROOT
