@<TRIPOS>MOLECULE
molecule
   56    56     1     0     0
SMALL
bcc


@<TRIPOS>ATOM
      1 C10          0.0000     0.0000     0.0000 c          1 8JQ       0.749100
      2 C11         -2.1230    -0.0010     1.0910 c3         1 8JQ       0.216700
      3 C12         -2.6980     0.0000     2.4840 ca         1 8JQ      -0.089300
      4 C13         -2.9630     1.1980     3.1220 ca         1 8JQ      -0.103500
      5 C14         -3.4910     1.1980     4.3990 ca         1 8JQ      -0.137500
      6 C15         -3.7530     0.0020     5.0390 ca         1 8JQ      -0.126000
      7 C16         -3.4890    -1.1960     4.4010 ca         1 8JQ      -0.137500
      8 O01          3.4360     2.3540    -0.5700 o          1 8JQ      -0.799500
      9 P01          2.5130     1.7120    -1.7220 p5         1 8JQ       1.099500
     10 N01          3.3540     1.7110    -3.1800 n7         1 8JQ      -0.898300
     11 C01          3.8190     3.0630    -3.5200 c3         1 8JQ       0.185500
     12 C02          5.2610     3.2410    -3.0400 c3         1 8JQ      -0.110400
     13 C03          5.6970     4.6900    -3.2660 c3         1 8JQ      -0.088700
     14 C04          4.8930     5.6140    -2.3490 c3         1 8JQ      -0.091100
     15 C05          7.1870     4.8300    -2.9490 c3         1 8JQ      -0.091100
     16 C06          3.7580     3.2530    -5.0130 c          1 8JQ       0.664100
     17 O02          3.6140     2.2940    -5.7420 o          1 8JQ      -0.586100
     18 O03          1.2760     2.5110    -1.8660 o          1 8JQ      -0.799500
     19 C09          2.0790    -0.0000    -1.2690 c3         1 8JQ      -0.058200
     20 N04          1.3480     0.0000     0.0000 ns         1 8JQ      -0.523900
     21 O04         -0.6730     0.0000     1.1660 os         1 8JQ      -0.443900
     22 C17         -2.9670    -1.1970     3.1210 ca         1 8JQ      -0.103500
     23 O05         -0.6080     0.0040    -1.0520 o          1 8JQ      -0.613000
     24 N02          3.8660     4.4890    -5.5390 ns         1 8JQ      -0.608900
     25 C07          3.7000     4.6880    -6.9810 c3         1 8JQ       0.093000
     26 C08          3.8690     6.1710    -7.3150 c3         1 8JQ       0.068800
     27 N03          3.7030     6.3720    -8.7600 nz         1 8JQ      -0.807600
     28 H1          -2.4570    -0.8860     0.5630 h1         1 8JQ       0.053700
     29 H2          -2.4580     0.8830     0.5610 h1         1 8JQ       0.053700
     30 H3          -2.7570     2.1360     2.6200 ha         1 8JQ       0.136500
     31 H4          -3.6980     2.1370     4.8990 ha         1 8JQ       0.125500
     32 H5          -4.1650     0.0030     6.0410 ha         1 8JQ       0.123000
     33 H6          -3.6980    -2.1340     4.9010 ha         1 8JQ       0.125500
     34 H8           3.8980     0.9140    -3.4440 hn         1 8JQ       0.396800
     35 H9           3.1830     3.7950    -3.0370 h1         1 8JQ       0.111700
     36 H10          5.3220     3.0060    -1.9840 hc         1 8JQ       0.078700
     37 H11          5.9110     2.5770    -3.5960 hc         1 8JQ       0.078700
     38 H12          5.5200     4.9640    -4.2990 hc         1 8JQ       0.007700
     39 H13          3.8430     5.5590    -2.6110 hc         1 8JQ       0.038033
     40 H14          5.0250     5.3030    -1.3190 hc         1 8JQ       0.038033
     41 H15          5.2420     6.6320    -2.4660 hc         1 8JQ       0.038033
     42 H16          7.3710     4.5100    -1.9300 hc         1 8JQ       0.038033
     43 H17          7.4850     5.8650    -3.0620 hc         1 8JQ       0.038033
     44 H18          7.7610     4.2120    -3.6300 hc         1 8JQ       0.038033
     45 H19          1.4580    -0.4330    -2.0440 h1         1 8JQ       0.055200
     46 H20          2.9850    -0.5860    -1.1630 h1         1 8JQ       0.055200
     47 H21          1.8480    -0.0270     0.8660 hn         1 8JQ       0.325500
     48 H22         -2.7600    -2.1350     2.6200 ha         1 8JQ       0.136500
     49 H23          4.0030     5.2770    -4.9390 hn         1 8JQ       0.331500
     50 H24          2.7110     4.3620    -7.2790 h1         1 8JQ       0.062700
     51 H25          4.4460     4.1110    -7.5140 h1         1 8JQ       0.062700
     52 H26          3.1240     6.7490    -6.7820 hx         1 8JQ       0.113700
     53 H27          4.8590     6.4970    -7.0170 hx         1 8JQ       0.113700
     54 H28          2.7880     6.0710    -9.0360 hn         1 8JQ       0.455133
     55 H29          4.3910     5.8390    -9.2530 hn         1 8JQ       0.455133
     56 H033         3.8140     7.3430    -8.9780 hn         1 8JQ       0.455133
@<TRIPOS>BOND
     1     7    22 ar
     2     7     6 ar
     3    22     3 ar
     4     6     5 ar
     5     3     2 1
     6     3     4 ar
     7     2    21 1
     8     5     4 ar
     9    21     1 1
    10    23     1 2
    11     1    20 1
    12    20    19 1
    13    19     9 1
    14    18     9 1
    15     8     9 1
    16     9    10 1
    17    10    11 1
    18    25    24 1
    19    25    26 1
    20    24    16 1
    21    16    17 2
    22    16    11 1
    23    11    12 1
    24    26    27 1
    25    12    13 1
    26    14    13 1
    27    13    15 1
    28     2    28 1
    29     2    29 1
    30     4    30 1
    31     5    31 1
    32     6    32 1
    33     7    33 1
    34    10    34 1
    35    11    35 1
    36    12    36 1
    37    12    37 1
    38    13    38 1
    39    14    39 1
    40    14    40 1
    41    14    41 1
    42    15    42 1
    43    15    43 1
    44    15    44 1
    45    19    45 1
    46    19    46 1
    47    20    47 1
    48    22    48 1
    49    24    49 1
    50    25    50 1
    51    25    51 1
    52    26    52 1
    53    26    53 1
    54    27    54 1
    55    27    55 1
    56    56    27 1
@<TRIPOS>SUBSTRUCTURE
     1 8JQ         1 TEMP              0 ****  ****    0 ROOT
