@<TRIPOS>MOLECULE
8JR
   39    41     1     0     0
SMALL
bcc


@<TRIPOS>ATOM
      1 C13          0.0000     0.0000     0.0000 ca         1 8JR      -0.130000
      2 C15         -0.0050    -0.0050     2.4040 ca         1 8JR      -0.115600
      3 C21          4.1730     3.2430     1.3160 ca         1 8JR       0.087000
      4 C22          4.8610     2.6430     2.3850 ca         1 8JR      -0.120000
      5 C24          4.7890     4.7170     3.5840 ca         1 8JR      -0.119000
      6 C26          3.8040     4.6080     1.4070 ca         1 8JR      -0.084000
      7 C01          2.0640     7.0590    -0.7260 c3         1 8JR       0.244700
      8 C03          3.1190     5.2110     0.3340 ca         1 8JR       0.219100
      9 C04          2.8230     4.4720    -0.7770 ca         1 8JR      -0.272000
     10 C05          3.1890     3.1310    -0.8620 ca         1 8JR       0.075000
     11 C06          3.8510     2.5180     0.1580 ca         1 8JR      -0.175500
     12 C11          2.0830     0.0000     1.1990 ca         1 8JR      -0.016400
     13 C12          1.3830     0.0000     0.0000 ca         1 8JR      -0.182000
     14 C14         -0.6960     0.0000     1.1910 ca         1 8JR      -0.058000
     15 C16         -0.7470    -0.0040     3.6800 c          1 8JR       0.972200
     16 C19          1.3930    -0.0100     2.4060 ca         1 8JR       0.111900
     17 C23          5.1570     3.3770     3.4920 ca         1 8JR      -0.060000
     18 C25          4.1270     5.3330     2.5660 ca         1 8JR      -0.064000
     19 F20          2.0700    -0.0100     3.5740 f          1 8JR      -0.118900
     20 N10          3.4810    -0.0050     1.1930 nu         1 8JR      -0.369500
     21 O17         -2.0940     0.0010     3.6760 o          1 8JR      -0.874800
     22 O18         -0.1430    -0.0080     4.7340 o          1 8JR      -0.874800
     23 S07          4.3080     0.8220     0.0200 sy         1 8JR       1.042200
     24 H1          -0.5390     0.0020    -0.9400 ha         1 8JR       0.089000
     25 H2           5.1540     1.6020     2.3280 ha         1 8JR       0.136000
     26 H3           5.0370     5.2790     4.4760 ha         1 8JR       0.098000
     27 H4           2.6890     6.9770    -1.6070 h1         1 8JR      -0.001967
     28 H5           1.1520     6.4940    -0.8760 h1         1 8JR      -0.001967
     29 H6           1.8200     8.1000    -0.5530 h1         1 8JR      -0.001967
     30 H7           2.2970     4.9350    -1.6020 ha         1 8JR       0.121000
     31 H8           2.9420     2.5670    -1.7530 ha         1 8JR       0.122000
     32 H9           1.9230     0.0040    -0.9390 ha         1 8JR       0.157000
     33 H10         -1.7790     0.0000     1.1850 ha         1 8JR       0.132000
     34 H11          5.6840     2.9100     4.3160 ha         1 8JR       0.100000
     35 H12          3.8470     6.3760     2.6510 ha         1 8JR       0.109000
     36 H13          3.9820    -0.5460     1.8700 hn         1 8JR       0.345800
     37 O08          3.7970     0.3680    -1.2260 o          1 8JR      -0.606300
     38 O09          5.6830     0.7470     0.3690 o          1 8JR      -0.606300
     39 O02          2.7560     6.5180     0.4020 os         1 8JR      -0.306900
@<TRIPOS>BOND
     1     1    13 ar  
     2     1    14 ar  
     3     1    24 1   
     4     2    14 ar  
     5     2    15 1   
     6     2    16 ar  
     7     3     4 ar  
     8     3     6 ar  
     9     3    11 ar  
    10     4    17 ar  
    11     4    25 1   
    12     5    17 ar  
    13     5    18 ar  
    14     5    26 1   
    15     6     8 ar  
    16     6    18 ar  
    17     7    27 1   
    18     7    28 1   
    19     7    29 1   
    20     7    39 1   
    21     8     9 ar  
    22     8    39 1   
    23     9    10 ar  
    24     9    30 1   
    25    10    11 ar  
    26    10    31 1   
    27    11    23 1   
    28    12    13 ar  
    29    12    16 ar  
    30    12    20 1   
    31    13    32 1   
    32    14    33 1   
    33    15    21 1   
    34    15    22 1   
    35    16    19 1   
    36    17    34 1   
    37    18    35 1   
    38    20    23 1   
    39    20    36 1   
    40    23    37 2   
    41    23    38 2   
@<TRIPOS>SUBSTRUCTURE
     1 8JR         1 TEMP              0 ****  ****    0 ROOT
