@<TRIPOS>MOLECULE
molecule
   34    35     1     0     0
SMALL
bcc


@<TRIPOS>ATOM
      1 C16          0.0000     0.0000     0.0000 ca         1 8JS      -0.078500
      2 C21          0.0050    -0.0020     2.4050 ca         1 8JS      -0.078500
      3 C5          -4.3230    -3.1320    -0.4310 ca         1 8JS      -0.096000
      4 C13         -5.9790    -1.4740    -0.9660 ca         1 8JS      -0.096000
      5 C17          1.3820     0.0000     0.0000 ca         1 8JS      -0.168500
      6 C20          1.3870    -0.0010     2.3990 ca         1 8JS      -0.168500
      7 C6          -5.0100    -4.0590    -1.1900 ca         1 8JS      -0.063500
      8 C12         -6.6550    -2.4030    -1.7340 ca         1 8JS      -0.063500
      9 C15         -0.6920    -0.0010     1.2040 ca         1 8JS      -0.042400
     10 C4          -4.8060    -1.8350    -0.3170 ca         1 8JS       0.086600
     11 C18          2.0760     0.0000     1.1980 ca         1 8JS       0.160900
     12 C7          -6.1750    -3.6950    -1.8410 ca         1 8JS      -0.254500
     13 C2          -2.7670    -0.8310     0.3870 cs         1 8JS       0.407400
     14 N10         -8.0920    -5.8010    -1.8640 nz         1 8JS      -0.780500
     15 N14         -2.0920    -0.0010     1.2070 ns         1 8JS      -0.249100
     16 N3          -4.1120    -0.8950     0.4520 ns         1 8JS      -0.304100
     17 O9          -6.0810    -5.7450    -3.5460 o          1 8JS      -0.451300
     18 O11         -7.7250    -4.2440    -3.9420 o          1 8JS      -0.451300
     19 F19          3.4260    -0.0000     1.1950 f          1 8JS      -0.123900
     20 S1          -1.9180    -1.8040    -0.7360 s          1 8JS      -0.617400
     21 S8          -7.0210    -4.8840    -2.8300 sy         1 8JS       1.011200
     22 H1          -0.5410    -0.0270    -0.9380 ha         1 8JS       0.167000
     23 H2          -0.2800     0.0990     3.4450 ha         1 8JS       0.167000
     24 H3          -3.4100    -3.4180     0.0770 ha         1 8JS       0.187000
     25 H4          -6.2560    -0.5540    -1.4670 ha         1 8JS       0.187000
     26 H5           1.9240    -0.0220    -0.9380 ha         1 8JS       0.162000
     27 H6           1.9660    -0.0220     3.3140 ha         1 8JS       0.162000
     28 H7          -4.6200    -5.0640    -1.3020 ha         1 8JS       0.174500
     29 H8          -7.0480    -1.8620    -2.5860 ha         1 8JS       0.174500
     30 H9          -8.3000    -6.6650    -2.3250 hn         1 8JS       0.483800
     31 H10         -7.6640    -5.9910    -0.9790 hn         1 8JS       0.483800
     32 H11         -2.5900    -0.5090     1.9110 hn         1 8JS       0.264500
     33 H12         -3.3990    -1.1950     1.0860 hn         1 8JS       0.322500
     34 H103        -8.8100    -5.2050    -1.5030 hn         1 8JS       0.483800
@<TRIPOS>BOND
     1    20    13 2
     2     1     5 ar
     3     1     9 ar
     4    15    13 1
     5    15     9 1
     6    13    16 1
     7     5    11 ar
     8     9     2 ar
     9    16    10 1
    10    11    19 1
    11    11     6 ar
    12    10     3 ar
    13    10     4 ar
    14     2     6 ar
    15     3     7 ar
    16     4     8 ar
    17     7    12 ar
    18     8    12 ar
    19    12    21 1
    20    14    21 1
    21    18    21 2
    22    21    17 2
    23     1    22 1
    24     2    23 1
    25     3    24 1
    26     4    25 1
    27     5    26 1
    28     6    27 1
    29     7    28 1
    30     8    29 1
    31    14    30 1
    32    14    31 1
    33    15    32 1
    34    16    33 1
    35    34    14 1
@<TRIPOS>SUBSTRUCTURE
     1 8JS         1 TEMP              0 ****  ****    0 ROOT
