@<TRIPOS>MOLECULE
8JS
   34    36     1     0     0
SMALL
bcc


@<TRIPOS>ATOM
      1 C16          0.0000     0.0000     0.0000 ca         1 8JS      -0.055000
      2 C21          0.0050    -0.0020     2.4050 ca         1 8JS      -0.055000
      3 C5          -4.3230    -3.1320    -0.4310 ca         1 8JS      -0.076500
      4 C13         -5.9790    -1.4740    -0.9660 ca         1 8JS      -0.076500
      5 C17          1.3820     0.0000     0.0000 ca         1 8JS      -0.132500
      6 C20          1.3870    -0.0010     2.3990 ca         1 8JS      -0.132500
      7 C6          -5.0100    -4.0590    -1.1900 ca         1 8JS      -0.029500
      8 C12         -6.6550    -2.4030    -1.7340 ca         1 8JS      -0.029500
      9 C15         -0.6920    -0.0010     1.2040 ca         1 8JS      -0.158000
     10 C4          -4.8060    -1.8350    -0.3170 ca         1 8JS       0.033000
     11 C18          2.0760     0.0000     1.1980 ca         1 8JS       0.105000
     12 C7          -6.1750    -3.6950    -1.8410 ca         1 8JS      -0.573000
     13 C2          -2.7670    -0.8310     0.3870 c3         1 8JS      -0.154000
     14 N10         -8.0920    -5.8010    -1.8640 nz         1 8JS       0.171000
     15 N14         -2.0920    -0.0010     1.2070 nu         1 8JS       0.273000
     16 N3          -4.1120    -0.8950     0.4520 nu         1 8JS       0.042000
     17 O9          -6.0810    -5.7450    -3.5460 o          1 8JS      -0.714500
     18 O11         -7.7250    -4.2440    -3.9420 o          1 8JS      -0.714500
     19 F19          3.4260    -0.0000     1.1950 f          1 8JS      -0.081000
     20 S1          -1.9180    -1.8040    -0.7360 s          1 8JS      -0.363000
     21 S8          -7.0210    -4.8840    -2.8300 s6         1 8JS       2.076000
     22 H1          -0.5410    -0.0270    -0.9380 ha         1 8JS       0.143000
     23 H2          -0.2800     0.0990     3.4450 ha         1 8JS       0.143000
     24 H3          -3.4100    -3.4180     0.0770 ha         1 8JS       0.158000
     25 H4          -6.2560    -0.5540    -1.4670 ha         1 8JS       0.158000
     26 H5           1.9240    -0.0220    -0.9380 ha         1 8JS       0.132000
     27 H6           1.9660    -0.0220     3.3140 ha         1 8JS       0.132000
     28 H7          -4.6200    -5.0640    -1.3020 ha         1 8JS       0.141500
     29 H8          -7.0480    -1.8620    -2.5860 ha         1 8JS       0.141500
     30 H9          -8.3000    -6.6650    -2.3250 hn         1 8JS       0.101000
     31 H10         -7.6640    -5.9910    -0.9790 hn         1 8JS       0.101000
     32 H11         -2.5900    -0.5090     1.9110 hn         1 8JS       0.045000
     33 H12         -3.3990    -1.1950     1.0860 DU         1 8JS       0.149000
     34 H103        -8.8100    -5.2050    -1.5030 hn         1 8JS       0.101000
@<TRIPOS>BOND
     1     1     5 1   
     2     1     9 1   
     3     1    22 1   
     4     2     6 1   
     5     2     9 1   
     6     2    23 1   
     7     3     7 1   
     8     3    10 1   
     9     3    24 1   
    10     4     8 1   
    11     4    10 1   
    12     4    25 1   
    13     5    11 1   
    14     5    26 1   
    15     6    11 1   
    16     6    27 1   
    17     7    12 1   
    18     7    28 1   
    19     8    12 1   
    20     8    29 1   
    21     9    15 1   
    22    10    16 1   
    23    11    19 1   
    24    12    21 1   
    25    13    15 1   
    26    13    16 1   
    27    13    20 1   
    28    13    33 1   
    29    14    21 1   
    30    14    30 1   
    31    14    31 1   
    32    14    34 1   
    33    15    32 1   
    34    16    33 1   
    35    17    21 1   
    36    18    21 1   
@<TRIPOS>SUBSTRUCTURE
     1 8JS         1 TEMP              0 ****  ****    0 ROOT
