@<TRIPOS>MOLECULE
8JT
   34    36     1     0     0
SMALL
bcc


@<TRIPOS>ATOM
      1 C4           0.0000     0.0000     0.0000 ca         1 8JT      -0.070000
      2 C5           1.3830     0.0000     0.0000 ca         1 8JT      -0.212300
      3 C6           2.1340    -0.0020    -1.3060 c3         1 8JT       0.053100
      4 C7           3.1120     1.3820    -3.0040 c3         1 8JT      -0.070500
      5 C8           4.5380     0.8340    -2.7940 c3         1 8JT      -0.028900
      6 C9           5.4180     1.6920    -3.7370 c3         1 8JT      -0.015900
      7 C10          4.7810     3.0980    -3.6120 c3         1 8JT      -0.015900
      8 C11          3.2660     2.8220    -3.5250 c3         1 8JT      -0.028900
      9 C12         -2.1430    -0.3960     2.8500 c3         1 8JT       0.436200
     10 O1          -0.8930     0.0160     3.4310 os         1 8JT      -0.295900
     11 C2           0.0070     0.0130     2.4040 ca         1 8JT       0.115100
     12 C1           1.3910     0.0020     2.3960 ca         1 8JT      -0.077000
     13 O           -2.0300     0.0090     1.4720 os         1 8JT      -0.301900
     14 C3          -0.6940     0.0070     1.2000 ca         1 8JT       0.078100
     15 C            2.0770     0.0000     1.1950 ca         1 8JT      -0.066000
     16 N            2.3790     1.3830    -1.7320 ny         1 8JT       0.023000
     17 H1          -0.5410    -0.0290    -0.9380 ha         1 8JT       0.118000
     18 H3           3.0800    -0.5130    -1.1790 hx         1 8JT       0.079700
     19 H2           1.5460    -0.5120    -2.0600 hx         1 8JT       0.079700
     20 H4           2.5900     0.7790    -3.7380 hx         1 8JT       0.090700
     21 H5           4.8460     0.9680    -1.7640 hc         1 8JT       0.036450
     22 H6           4.5860    -0.2110    -3.0780 hc         1 8JT       0.036450
     23 H8           5.3510     1.3310    -4.7560 hc         1 8JT       0.040700
     24 H7           6.4460     1.7050    -3.3940 hc         1 8JT       0.040700
     25 H10          5.0070     3.6940    -4.4890 hc         1 8JT       0.040700
     26 H9           5.1280     3.5910    -2.7120 hc         1 8JT       0.040700
     27 H11          2.8170     2.9100    -4.5070 hc         1 8JT       0.036450
     28 H12          2.8030     3.5160    -2.8350 hc         1 8JT       0.036450
     29 H13         -2.2390    -1.4730     2.9100 h2         1 8JT       0.032200
     30 H14         -2.9600     0.1350     3.3230 h2         1 8JT       0.032200
     31 H15          1.9380     0.0020     3.3310 ha         1 8JT       0.134000
     32 H16          3.1600    -0.0000     1.1920 ha         1 8JT       0.111000
     33 H18          2.9210     1.8550    -1.0350 hn         1 8JT       0.245800
     34 H17          1.5050     1.8550    -1.8510 hn         1 8JT       0.245800
@<TRIPOS>BOND
     1     1     2 ar  
     2     1    14 ar  
     3     1    17 1   
     4     2     3 1   
     5     2    15 ar  
     6     3    16 1   
     7     3    18 1   
     8     3    19 1   
     9     4     5 1   
    10     4     8 1   
    11     4    16 1   
    12     4    20 1   
    13     5     6 1   
    14     5    21 1   
    15     5    22 1   
    16     6     7 1   
    17     6    23 1   
    18     6    24 1   
    19     7     8 1   
    20     7    25 1   
    21     7    26 1   
    22     8    27 1   
    23     8    28 1   
    24     9    10 1   
    25     9    13 1   
    26     9    29 1   
    27     9    30 1   
    28    10    11 1   
    29    11    12 ar  
    30    11    14 ar  
    31    12    15 ar  
    32    12    31 1   
    33    13    14 1   
    34    15    32 1   
    35    16    33 1   
    36    16    34 1   
@<TRIPOS>SUBSTRUCTURE
     1 8JT         1 TEMP              0 ****  ****    0 ROOT
