@<TRIPOS>MOLECULE
8JW
   18    18     1     0     0
SMALL
bcc


@<TRIPOS>ATOM
      1 C4           0.0000     0.0000     0.0000 cc         1 8JW      -0.544200
      2 C5          -0.6510     0.0170     3.7140 c3         1 8JW       0.663100
      3 N1          -0.7090     0.0010    -1.2080 nz         1 8JW       0.348600
      4 F2           0.2860     0.0210     4.7520 f          1 8JW      -0.190300
      5 F           -1.4530    -1.1250     3.8140 f          1 8JW      -0.190300
      6 F1          -1.4530     1.1600     3.8050 f          1 8JW      -0.190300
      7 C1           0.0670     0.0110     2.3890 cd         1 8JW      -0.335200
      8 C2           1.4180     0.0110     2.3530 cc         1 8JW       0.016600
      9 N            2.0840     0.0000     1.1670 ns         1 8JW       0.161900
     10 C3           1.4120     0.0000     0.0000 c          1 8JW       0.609700
     11 O            2.0240     0.0010    -1.0570 o          1 8JW      -0.646500
     12 C           -0.6670     0.0060     1.1940 cd         1 8JW       0.175000
     13 H3          -1.6900    -0.0640    -1.0190 hn         1 8JW       0.204467
     14 H4          -0.5200     0.8490    -1.7050 hn         1 8JW       0.204467
     15 H2           1.9780     0.0110     3.2800 h4         1 8JW       0.170000
     16 H            3.0850    -0.0000     1.1620 hn         1 8JW       0.208500
     17 H1          -1.7380     0.1680     1.2150 ha         1 8JW       0.132000
     18 H13         -0.4270    -0.7850    -1.7610 hn         1 8JW       0.204467
@<TRIPOS>BOND
     1     1     3 1   
     2     1    10 1   
     3     1    12 2   
     4     2     4 1   
     5     2     5 1   
     6     2     6 1   
     7     2     7 1   
     8     3    13 1   
     9     3    14 1   
    10     3    18 1   
    11     7     8 2   
    12     7    12 1   
    13     8     9 1   
    14     8    15 1   
    15     9    10 1   
    16     9    16 1   
    17    10    11 2   
    18    12    17 1   
@<TRIPOS>SUBSTRUCTURE
     1 8JW         1 TEMP              0 ****  ****    0 ROOT
