@<TRIPOS>MOLECULE
molecule
   18    18     1     0     0
SMALL
bcc


@<TRIPOS>ATOM
      1 C4           0.0000     0.0000     0.0000 cc         1 8JW      -0.268200
      2 C5          -0.6510     0.0170     3.7140 c3         1 8JW       0.696100
      3 N1          -0.7090     0.0010    -1.2080 nz         1 8JW      -0.629400
      4 F2           0.2860     0.0210     4.7520 f          1 8JW      -0.202633
      5 F           -1.4530    -1.1250     3.8140 f          1 8JW      -0.202633
      6 F1          -1.4530     1.1600     3.8050 f          1 8JW      -0.202633
      7 C1           0.0670     0.0110     2.3890 cc         1 8JW      -0.312200
      8 C2           1.4180     0.0110     2.3530 cd         1 8JW       0.143600
      9 N            2.0840     0.0000     1.1670 ns         1 8JW      -0.371100
     10 C3           1.4120     0.0000     0.0000 c          1 8JW       0.703700
     11 O            2.0240     0.0010    -1.0570 o          1 8JW      -0.605500
     12 C           -0.6670     0.0060     1.1940 cc         1 8JW       0.086000
     13 H3          -1.6900    -0.0640    -1.0190 hn         1 8JW       0.464133
     14 H4          -0.5200     0.8490    -1.7050 hn         1 8JW       0.464133
     15 H2           1.9780     0.0110     3.2800 h4         1 8JW       0.214000
     16 H            3.0850    -0.0000     1.1620 hn         1 8JW       0.387500
     17 H1          -1.7380     0.1680     1.2150 ha         1 8JW       0.172000
     18 H13         -0.4270    -0.7850    -1.7610 hn         1 8JW       0.464133
@<TRIPOS>BOND
     1     6     2 1   
     2     5     2 1   
     3     2     7 1   
     4     2     4 1   
     5    12     7 1   
     6    12     1 2   
     7     3     1 1   
     8     7     8 2   
     9     1    10 1   
    10     8     9 1   
    11    10     9 1   
    12    10    11 2   
    13     3    13 1   
    14     3    14 1   
    15     8    15 1   
    16     9    16 1   
    17    12    17 1   
    18    18     3 1   
@<TRIPOS>SUBSTRUCTURE
     1 8JW         1 TEMP              0 ****  ****    0 ROOT
