@<TRIPOS>MOLECULE
molecule
   41    42     1     0     0
SMALL
bcc


@<TRIPOS>ATOM
      1 OAB          0.0000     0.0000     0.0000 o          1 8JX      -0.855300
      2 CAR          1.2080     0.0000     0.0000 c          1 8JX       0.891600
      3 OAE          1.8800     0.0000     1.1630 o          1 8JX      -0.855300
      4 CAO          1.9620    -0.0070    -1.3050 c3         1 8JX      -0.182400
      5 CAM          0.9670    -0.0130    -2.4680 c3         1 8JX      -0.062400
      6 CAL          1.7320    -0.0190    -3.7930 c3         1 8JX      -0.096400
      7 CAN          0.7370    -0.0250    -4.9560 c3         1 8JX       0.225800
      8 NAP          1.4700    -0.0310    -6.2250 n7         1 8JX      -0.915100
      9 SAW          0.6870    -0.4220    -7.6300 sy         1 8JX       1.428200
     10 OAC          1.6470    -0.3020    -8.6720 o          1 8JX      -0.651300
     11 OAD         -0.0320    -1.6210    -7.3700 o          1 8JX      -0.651300
     12 CAT         -0.5200     0.8280    -7.9210 ca         1 8JX      -0.332500
     13 CAV         -0.1190     2.1530    -8.1630 ca         1 8JX       0.077000
     14 CAK          1.2400     2.5120    -8.1820 ca         1 8JX      -0.140000
     15 CAG          1.5920     3.8050    -8.4210 ca         1 8JX      -0.093000
     16 CAF          0.6230     4.7810    -8.6480 ca         1 8JX      -0.149000
     17 CAJ         -0.7020     4.4700    -8.6390 ca         1 8JX      -0.086000
     18 CAU         -1.1020     3.1460    -8.3960 ca         1 8JX      -0.073000
     19 CAS         -2.4660     2.7850    -8.3770 ca         1 8JX       0.222100
     20 OAQ         -3.4240     3.7220    -8.5970 os         1 8JX      -0.327900
     21 CAA         -4.7820     3.2820    -8.5640 c3         1 8JX       0.130700
     22 CAH         -2.8150     1.4870    -8.1370 ca         1 8JX      -0.286000
     23 CAI         -1.8450     0.5130    -7.9160 ca         1 8JX       0.027000
     24 H2           2.5840     0.8780    -1.3670 hc         1 8JX       0.028700
     25 H3           2.5850    -0.8910    -1.3580 hc         1 8JX       0.028700
     26 H4           0.3440     0.8720    -2.4150 hc         1 8JX       0.048700
     27 H5           0.3450    -0.8970    -2.4060 hc         1 8JX       0.048700
     28 H6           2.3540     0.8650    -3.8550 hc         1 8JX       0.036700
     29 H7           2.3540    -0.9040    -3.8460 hc         1 8JX       0.036700
     30 H8           0.1150     0.8600    -4.9030 h1         1 8JX       0.048200
     31 H9           0.1150    -0.9090    -4.8940 h1         1 8JX       0.048200
     32 H10          2.4550     0.1430    -6.2340 hn         1 8JX       0.451800
     33 H11          2.0040     1.7630    -8.0070 ha         1 8JX       0.152000
     34 H12          2.6390     4.0790    -8.4330 ha         1 8JX       0.131000
     35 H13          0.9300     5.8030    -8.8360 ha         1 8JX       0.127000
     36 H14         -1.4430     5.2390    -8.8170 ha         1 8JX       0.141000
     37 H15         -4.9990     2.8550    -7.5920 h1         1 8JX       0.043700
     38 H16         -5.4390     4.1240    -8.7430 h1         1 8JX       0.043700
     39 H17         -4.9380     2.5320    -9.3300 h1         1 8JX       0.043700
     40 H18         -3.7670     0.9690    -8.1320 ha         1 8JX       0.144000
     41 H19         -2.2480    -0.4920    -7.9070 ha         1 8JX       0.153000
@<TRIPOS>BOND
     1    16    15 ar  
     2    16    17 ar  
     3    15    14 ar  
     4    17    18 ar  
     5    14    13 ar  
     6    18    13 ar  
     7    18    19 ar  
     8    13    12 ar  
     9    11     9 2   
    10    20    19 1   
    11    20    21 1   
    12    19    22 ar  
    13    12     9 1   
    14    12    23 ar  
    15     9     8 1   
    16     9    10 2   
    17     8     7 1   
    18    22    23 ar  
    19     7     6 1   
    20     6     5 1   
    21     4     5 1   
    22     4     2 1   
    23     2     1 1   
    24     2     3 1   
    25     4    24 1   
    26     4    25 1   
    27     5    26 1   
    28     5    27 1   
    29     6    28 1   
    30     6    29 1   
    31     7    30 1   
    32     7    31 1   
    33     8    32 1   
    34    14    33 1   
    35    15    34 1   
    36    16    35 1   
    37    17    36 1   
    38    21    37 1   
    39    21    38 1   
    40    21    39 1   
    41    22    40 1   
    42    23    41 1   
@<TRIPOS>SUBSTRUCTURE
     1 8JX         1 TEMP              0 ****  ****    0 ROOT
