@<TRIPOS>MOLECULE
molecule
   20    19     1     0     0
SMALL
bcc


@<TRIPOS>ATOM
      1 OAC          0.0000     0.0000     0.0000 o          1 8JZ      -0.552000
      2 CAH          1.2080     0.0000     0.0000 c          1 8JZ       0.630100
      3 CAB          1.9620     0.0000     1.3050 c3         1 8JZ      -0.140100
      4 OAG          1.8790    -0.0060    -1.1620 os         1 8JZ      -0.433900
      5 CAF          1.0880    -0.0110    -2.3800 c3         1 8JZ       0.147400
      6 CAE          2.0210    -0.0170    -3.5930 c3         1 8JZ      -0.085400
      7 CAD          1.1880    -0.0230    -4.8770 c3         1 8JZ      -0.082400
      8 CAA          2.1200    -0.0290    -6.0900 c3         1 8JZ      -0.090100
      9 HAB          2.6640     0.8250     1.3160 hc         1 8JZ       0.068700
     10 HABA         1.2630     0.1090     2.1250 hc         1 8JZ       0.068700
     11 HABB         2.5000    -0.9340     1.4110 hc         1 8JZ       0.068700
     12 HAF          0.4630     0.8730    -2.4090 h1         1 8JZ       0.049700
     13 HAFA         0.4640    -0.8960    -2.4010 h1         1 8JZ       0.049700
     14 HAE          2.6460    -0.9010    -3.5640 hc         1 8JZ       0.053700
     15 HAEA         2.6460     0.8680    -3.5720 hc         1 8JZ       0.053700
     16 HAD          0.5640     0.8620    -4.9060 hc         1 8JZ       0.043700
     17 HADA         0.5630    -0.9070    -4.8970 hc         1 8JZ       0.043700
     18 HAA          2.7310    -0.9230    -6.0710 hc         1 8JZ       0.035700
     19 HAAA         2.7580     0.8460    -6.0600 hc         1 8JZ       0.035700
     20 HAAB         1.5300    -0.0140    -6.9980 hc         1 8JZ       0.035700
@<TRIPOS>BOND
     1     1     2 2
     2     2     3 1
     3     2     4 1
     4     4     5 1
     5     5     6 1
     6     6     7 1
     7     7     8 1
     8     3     9 1
     9     3    10 1
    10     3    11 1
    11     5    12 1
    12     5    13 1
    13     6    14 1
    14     6    15 1
    15     7    16 1
    16     7    17 1
    17     8    18 1
    18     8    19 1
    19     8    20 1
@<TRIPOS>SUBSTRUCTURE
     1 8JZ         1 TEMP              0 ****  ****    0 ROOT
