@<TRIPOS>MOLECULE
8JZ
   20    19     1     0     0
SMALL
bcc


@<TRIPOS>ATOM
      1 OAC        -0.1050   -0.1820   -0.0220 o         1 8JZ     -0.546000
      2 CAH         1.1240   -0.0800    0.0050 c         1 8JZ      0.632100
      3 CAB         2.0250   -0.0170    1.1890 c3        1 8JZ     -0.150100
      4 OAG         1.7960   -0.0110   -1.1830 os        1 8JZ     -0.444900
      5 CAF         0.9980   -0.0660   -2.3790 c3        1 8JZ      0.139400
      6 CAE         1.9720    0.0250   -3.5380 c3        1 8JZ     -0.086400
      7 CAD         1.2240   -0.0240   -4.8530 c3        1 8JZ     -0.079400
      8 CAA         2.1690    0.0640   -6.0240 c3        1 8JZ     -0.092100
      9 HAB         3.0910    0.0930    0.8760 hc        1 8JZ      0.075700
     10 HABA        1.7300    0.8550    1.8220 hc        1 8JZ      0.075700
     11 HABB        1.9060   -0.9570    1.7830 hc        1 8JZ      0.075700
     12 HAF         0.2760    0.7910   -2.3700 h1        1 8JZ      0.051700
     13 HAFA        0.4250   -1.0290   -2.3880 h1        1 8JZ      0.051700
     14 HAE         2.5570    0.9770   -3.4620 hc        1 8JZ      0.053700
     15 HAEA        2.7050   -0.8210   -3.4790 hc        1 8JZ      0.053700
     16 HAD         0.6350   -0.9780   -4.9150 hc        1 8JZ      0.041700
     17 HADA        0.4880    0.8220   -4.8980 hc        1 8JZ      0.041700
     18 HAA         2.8940   -0.7850   -6.0100 hc        1 8JZ      0.035033
     19 HAAA        2.7470    1.0190   -5.9930 hc        1 8JZ      0.035033
     20 HAAB        1.6000    0.0260   -6.9840 hc        1 8JZ      0.035033
@<TRIPOS>BOND
     1    1    2 2   
     2    2    3 1   
     3    2    4 1   
     4    3    9 1   
     5    3   10 1   
     6    3   11 1   
     7    4    5 1   
     8    5    6 1   
     9    5   12 1   
    10    5   13 1   
    11    6    7 1   
    12    6   14 1   
    13    6   15 1   
    14    7    8 1   
    15    7   16 1   
    16    7   17 1   
    17    8   18 1   
    18    8   19 1   
    19    8   20 1   
@<TRIPOS>SUBSTRUCTURE
     1 8JZ         1 TEMP              0 ****  ****    0 ROOT
