@<TRIPOS>MOLECULE
8K0
   37    38     1     0     0
SMALL
bcc


@<TRIPOS>ATOM
      1 OAA          0.0000     0.0000     0.0000 o          1 8K0      -0.904300
      2 CAQ          1.2090     0.0000     0.0000 c          1 8K0       0.980600
      3 OAD          1.8800     0.0000     1.1630 o          1 8K0      -0.904300
      4 CAO          1.9630    -0.0070    -1.3040 c3         1 8K0      -0.133400
      5 CAM          0.9690    -0.0120    -2.4680 c3         1 8K0      -0.011400
      6 CAL          1.7350    -0.0190    -3.7930 c3         1 8K0      -0.048400
      7 CAN          0.7410    -0.0240    -4.9550 c3         1 8K0       0.219800
      8 NAP          1.4740    -0.0300    -6.2240 n7         1 8K0      -0.580100
      9 SAV          0.6920    -0.4220    -7.6300 sy         1 8K0       1.041200
     10 OAB          1.6530    -0.3020    -8.6710 o          1 8K0      -0.596800
     11 OAC         -0.0260    -1.6190    -7.3700 o          1 8K0      -0.596800
     12 CAS         -0.5150     0.8300    -7.9220 ca         1 8K0      -0.132500
     13 CAU         -0.1140     2.1540    -8.1640 ca         1 8K0       0.052000
     14 CAK          1.2440     2.5140    -8.1810 ca         1 8K0      -0.111000
     15 CAG          1.5950     3.8080    -8.4200 ca         1 8K0      -0.077000
     16 CAF          0.6260     4.7830    -8.6490 ca         1 8K0      -0.101000
     17 CAJ         -0.6980     4.4710    -8.6390 ca         1 8K0      -0.086000
     18 CAT         -1.0990     3.1460    -8.3960 ca         1 8K0      -0.049000
     19 CAR         -2.4580     2.7860    -8.3790 ca         1 8K0       0.097100
     20 BrAE        -3.7920     4.0910    -8.6860 br         1 8K0      -0.133100
     21 CAH         -2.8080     1.4920    -8.1390 ca         1 8K0      -0.119000
     22 CAI         -1.8390     0.5160    -7.9180 ca         1 8K0       0.027000
     23 H2           2.5870     0.8770    -1.3660 hc         1 8K0       0.004700
     24 H3           2.5850    -0.8920    -1.3570 hc         1 8K0       0.004700
     25 H4           0.3460     0.8730    -2.4150 hc         1 8K0       0.022700
     26 H5           0.3460    -0.8960    -2.4060 hc         1 8K0       0.022700
     27 H6           2.3570    -0.9030    -3.8460 hc         1 8K0       0.009700
     28 H7           2.3580     0.8660    -3.8540 hc         1 8K0       0.009700
     29 H8           0.1180    -0.9080    -4.8940 h1         1 8K0       0.017200
     30 H9           0.1180     0.8610    -4.9020 h1         1 8K0       0.017200
     31 H10          2.4560     0.1620    -6.2350 hn         1 8K0       0.350800
     32 H11          2.0080     1.7660    -8.0050 ha         1 8K0       0.138000
     33 H12          2.6420     4.0830    -8.4330 ha         1 8K0       0.102000
     34 H13          0.9320     5.8050    -8.8360 ha         1 8K0       0.100000
     35 H14         -1.4400     5.2400    -8.8190 ha         1 8K0       0.115000
     36 H15         -3.8560     1.2150    -8.1310 ha         1 8K0       0.119000
     37 H16         -2.1450    -0.5060    -7.7290 ha         1 8K0       0.133000
@<TRIPOS>BOND
     1     1     2 1   
     2     2     3 1   
     3     2     4 1   
     4     4     5 1   
     5     4    23 1   
     6     4    24 1   
     7     5     6 1   
     8     5    25 1   
     9     5    26 1   
    10     6     7 1   
    11     6    27 1   
    12     6    28 1   
    13     7     8 1   
    14     7    29 1   
    15     7    30 1   
    16     8     9 1   
    17     8    31 1   
    18     9    10 2   
    19     9    11 2   
    20     9    12 1   
    21    12    13 ar  
    22    12    22 ar  
    23    13    14 ar  
    24    13    18 ar  
    25    14    15 ar  
    26    14    32 1   
    27    15    16 ar  
    28    15    33 1   
    29    16    17 ar  
    30    16    34 1   
    31    17    18 ar  
    32    17    35 1   
    33    18    19 ar  
    34    19    20 1   
    35    19    21 ar  
    36    21    22 ar  
    37    21    36 1   
    38    22    37 1   
@<TRIPOS>SUBSTRUCTURE
     1 8K0         1 TEMP              0 ****  ****    0 ROOT
