@<TRIPOS>MOLECULE
8K2
   15    15     1     0     0
SMALL
bcc


@<TRIPOS>ATOM
      1 C2           0.0000     0.0000     0.0000 cc         1 8K2      -0.176000
      2 Cl           2.3360    -0.0010    -1.4180 cl         1 8K2       0.164600
      3 C3           1.3350     0.0000     0.0000 cd         1 8K2       0.121300
      4 C1          -0.5830     0.0010     1.2560 cc         1 8K2       0.085000
      5 S1           1.9240     0.0000     1.6580 ss         1 8K2      -0.119800
      6 C            0.2780     0.0010     2.2760 cd         1 8K2      -0.186600
      7 S           -0.1660     0.0000     3.9800 sy         1 8K2       0.972200
      8 O            0.9410     0.5440     4.6840 o          1 8K2      -0.484300
      9 O1          -1.4780     0.5450     4.0530 o          1 8K2      -0.484300
     10 N           -0.2910    -1.5810     4.4550 nz         1 8K2      -0.130500
     11 H3          -0.5830    -0.0000    -0.9130 ha         1 8K2       0.158000
     12 H2          -1.6560     0.0010     1.4000 ha         1 8K2       0.135000
     13 H1           0.6240    -1.9730     4.5540 hn         1 8K2       0.315133
     14 H           -0.8020    -2.0970     3.7660 hn         1 8K2       0.315133
     15 HN3         -0.7710    -1.6290     5.3320 hn         1 8K2       0.315133
@<TRIPOS>BOND
     1     1     3 2   
     2     1     4 1   
     3     1    11 1   
     4     2     3 1   
     5     3     5 1   
     6     4     6 2   
     7     4    12 1   
     8     5     6 1   
     9     6     7 1   
    10     7     8 2   
    11     7     9 2   
    12     7    10 1   
    13    10    13 1   
    14    10    14 1   
    15    10    15 1   
@<TRIPOS>SUBSTRUCTURE
     1 8K2         1 TEMP              0 ****  ****    0 ROOT
