@<TRIPOS>MOLECULE
molecule
   15    15     1     0     0
SMALL
bcc


@<TRIPOS>ATOM
      1 C2           0.0000     0.0000     0.0000 cc         1 8K2      -0.185000
      2 Cl           2.3360    -0.0010    -1.4180 cl         1 8K2       0.031600
      3 C3           1.3350     0.0000     0.0000 cd         1 8K2       0.147300
      4 C1          -0.5830     0.0010     1.2560 cc         1 8K2       0.027000
      5 S1           1.9240     0.0000     1.6580 ss         1 8K2       0.052200
      6 C            0.2780     0.0010     2.2760 cd         1 8K2      -0.366600
      7 S           -0.1660     0.0000     3.9800 sy         1 8K2       1.271200
      8 O            0.9410     0.5440     4.6840 o          1 8K2      -0.510300
      9 O1          -1.4780     0.5450     4.0530 o          1 8K2      -0.510300
     10 N           -0.2910    -1.5810     4.4550 nz         1 8K2      -0.809500
     11 H3          -0.5830    -0.0000    -0.9130 ha         1 8K2       0.194000
     12 H2          -1.6560     0.0010     1.4000 ha         1 8K2       0.175000
     13 H1           0.6240    -1.9730     4.5540 hn         1 8K2       0.494133
     14 H           -0.8020    -2.0970     3.7660 hn         1 8K2       0.494133
     15 HN3         -0.7710    -1.6290     5.3320 hn         1 8K2       0.494133
@<TRIPOS>BOND
     1     1     3 2   
     2     1     4 1   
     3     2     3 1   
     4     3     5 1   
     5     4     6 2   
     6     5     6 1   
     7     6     7 1   
     8     7     8 2   
     9     7     9 2   
    10     7    10 1   
    11     1    11 1   
    12     4    12 1   
    13    10    13 1   
    14    10    14 1   
    15    15    10 1   
@<TRIPOS>SUBSTRUCTURE
     1 8K2         1 TEMP              0 ****  ****    0 ROOT
