@<TRIPOS>MOLECULE
8K4
   54    58     1     0     0
SMALL
bcc


@<TRIPOS>ATOM
      1 C13          0.0000     0.0000     0.0000 ca         1 8K4      -0.072500
      2 C18          1.8140     2.4550    -1.3920 c          1 8K4       0.633100
      3 C17          2.0750     0.0000     1.1970 ca         1 8K4      -0.072500
      4 C16          1.3850     0.0030     2.3950 ca         1 8K4      -0.136500
      5 C15          0.0000     0.0150     2.3950 ca         1 8K4       0.096900
      6 C22          1.5590     5.0560    -1.3420 cy         1 8K4       0.041000
      7 C23          2.8620     5.6120    -0.7520 cy         1 8K4       0.132100
      8 C24          3.5000     4.4490    -1.5240 cy         1 8K4       0.041000
      9 C11          1.3830     0.0000     0.0000 ca         1 8K4      -0.078300
     10 C12          2.8310     1.3470    -1.4950 c3         1 8K4      -0.107400
     11 C1           1.1580    -0.2400    -2.4580 c3         1 8K4      -0.052700
     12 C2           2.1360    -0.0030    -1.3050 c3         1 8K4       0.033300
     13 C3           3.1840    -1.1180    -1.2870 c3         1 8K4      -0.052700
     14 C4           3.9480    -1.1200    -2.6130 c3         1 8K4      -0.026900
     15 C5           2.9700    -1.3580    -3.7650 c3         1 8K4      -0.039700
     16 C6           1.9230    -0.2430    -3.7820 c3         1 8K4      -0.026900
     17 C7           0.4630    -1.5900    -2.2670 c3         1 8K4      -0.026900
     18 C8           2.2750    -2.7070    -3.5750 c3         1 8K4      -0.015400
     19 C9           1.5100    -2.7050    -2.2500 c3         1 8K4      -0.039700
     20 C10          2.4890    -2.4670    -1.0970 c3         1 8K4      -0.026900
     21 C14         -0.6910     0.0080     1.1970 ca         1 8K4      -0.136500
     22 N19          2.2150     3.7410    -1.4150 nj         1 8K4      -0.202800
     23 O20          0.6360     2.1880    -1.2860 o          1 8K4      -0.644100
     24 F21         -0.6750     0.0220     3.5650 f          1 8K4      -0.132900
     25 O25          3.2210     6.9060    -1.2410 os         1 8K4      -0.390600
     26 C26          3.9540     7.6990    -0.3050 c3         1 8K4       0.252700
     27 H43         -0.5420    -0.0030    -0.9380 ha         1 8K4       0.125500
     28 H46          3.1580    -0.0050     1.1960 ha         1 8K4       0.125500
     29 H45          1.9280     0.0060     3.3320 ha         1 8K4       0.116000
     30 H48          0.7350     5.0770    -0.6400 h1         1 8K4       0.032450
     31 H49          2.9260     5.4950     0.3230 h1         1 8K4       0.042700
     32 H51          3.7530     4.7090    -2.5450 h1         1 8K4       0.032450
     33 H50          4.2970     3.9630    -0.9730 h1         1 8K4       0.032450
     34 H42          3.5850     1.4760    -0.7280 hc         1 8K4       0.042700
     35 H41          3.3000     1.3770    -2.4710 hc         1 8K4       0.042700
     36 H27          0.4160     0.5490    -2.4710 hc         1 8K4       0.051700
     37 H28          3.8760    -0.9500    -0.4710 hc         1 8K4       0.051700
     38 H30          4.6900    -1.9100    -2.6000 hc         1 8K4       0.020325
     39 H29          4.4400    -0.1650    -2.7480 hc         1 8K4       0.020325
     40 H31          3.5110    -1.3600    -4.7040 hc         1 8K4       0.022700
     41 H32          2.4150     0.7130    -3.9170 hc         1 8K4       0.020325
     42 H33          1.2300    -0.4100    -4.5990 hc         1 8K4       0.020325
     43 H35         -0.0780    -1.5880    -1.3280 hc         1 8K4       0.020325
     44 H34         -0.2300    -1.7580    -3.0830 hc         1 8K4       0.020325
     45 H36          1.5830    -2.8760    -4.3910 hc         1 8K4       0.014700
     46 H37          3.0170    -3.4970    -3.5620 hc         1 8K4       0.014700
     47 H38          1.0180    -3.6610    -2.1150 hc         1 8K4       0.022700
     48 H39          3.2310    -3.2570    -1.0850 hc         1 8K4       0.020325
     49 H40          1.9480    -2.4660    -0.1580 hc         1 8K4       0.020325
     50 H44         -1.7740     0.0130     1.1960 ha         1 8K4       0.116000
     51 H52          3.3270     7.9220     0.5490 h1         1 8K4      -0.009967
     52 H53          4.8300     7.1520     0.0230 h1         1 8K4      -0.009967
     53 H54          4.2620     8.6230    -0.7780 h1         1 8K4      -0.009967
     54 H47          1.3290     5.4670    -2.3180 h1         1 8K4       0.032450
@<TRIPOS>BOND
     1     1     9 ar  
     2     1    21 ar  
     3     1    27 1   
     4     2    10 1   
     5     2    22 1   
     6     2    23 2   
     7     3     4 ar  
     8     3     9 ar  
     9     3    28 1   
    10     4     5 ar  
    11     4    29 1   
    12     5    21 ar  
    13     5    24 1   
    14     6     7 1   
    15     6    22 1   
    16     6    30 1   
    17     6    54 1   
    18     7     8 1   
    19     7    25 1   
    20     7    31 1   
    21     8    22 1   
    22     8    32 1   
    23     8    33 1   
    24     9    12 1   
    25    10    12 1   
    26    10    34 1   
    27    10    35 1   
    28    11    12 1   
    29    11    16 1   
    30    11    17 1   
    31    11    36 1   
    32    12    13 1   
    33    13    14 1   
    34    13    20 1   
    35    13    37 1   
    36    14    15 1   
    37    14    38 1   
    38    14    39 1   
    39    15    16 1   
    40    15    18 1   
    41    15    40 1   
    42    16    41 1   
    43    16    42 1   
    44    17    19 1   
    45    17    43 1   
    46    17    44 1   
    47    18    19 1   
    48    18    45 1   
    49    18    46 1   
    50    19    20 1   
    51    19    47 1   
    52    20    48 1   
    53    20    49 1   
    54    21    50 1   
    55    25    26 1   
    56    26    51 1   
    57    26    52 1   
    58    26    53 1   
@<TRIPOS>SUBSTRUCTURE
     1 8K4         1 TEMP              0 ****  ****    0 ROOT
