@<TRIPOS>MOLECULE
molecule
   23    23     1     0     0
SMALL
bcc


@<TRIPOS>ATOM
      1 C4           0.0000     0.0000     0.0000 ca         1 8K5      -0.107000
      2 C5           1.3840     0.0000     0.0000 ca         1 8K5       0.096400
      3 C6           2.0740     0.0000     1.2000 ca         1 8K5      -0.107000
      4 N1          -2.1610     0.1610     6.1310 nz         1 8K5      -0.775600
      5 C7           1.3820    -0.0020     2.3950 ca         1 8K5      -0.075000
      6 Cl           2.2530     0.0010    -1.5020 cl         1 8K5       0.004600
      7 C3          -0.6910     0.0030     1.1970 ca         1 8K5      -0.075000
      8 C2          -0.0000    -0.0030     2.3940 ca         1 8K5      -0.163300
      9 C1          -0.7550    -0.0040     3.6990 c3         1 8K5      -0.015000
     10 S           -1.0580     1.7010     4.2230 ss         1 8K5       0.210700
     11 C           -1.9280     1.4090     5.7270 c2         1 8K5       0.285100
     12 N           -2.3520     2.4380     6.4610 nv         1 8K5      -0.354100
     13 H7          -0.5420     0.0050    -0.9380 ha         1 8K5       0.186000
     14 H8           3.1570     0.0030     1.1800 ha         1 8K5       0.186000
     15 H2          -1.2910    -0.3160     6.2590 hn         1 8K5       0.502800
     16 H3          -2.7050    -0.3170     5.4400 hn         1 8K5       0.502800
     17 H9           1.9220    -0.0050     3.3340 ha         1 8K5       0.144000
     18 H6          -1.7740     0.0070     1.1960 ha         1 8K5       0.144000
     19 H4          -0.1690    -0.5150     4.4540 h1         1 8K5       0.089700
     20 H5          -1.7010    -0.5150     3.5690 h1         1 8K5       0.089700
     21 H           -2.1770     3.3750     6.1580 hn         1 8K5       0.363700
     22 H1          -2.8460     2.2720     7.3160 hn         1 8K5       0.363700
     23 H13         -2.6620     0.1790     6.9970 hn         1 8K5       0.502800
@<TRIPOS>BOND
     1    10     9 1
     2    10    11 1
     3     9     8 1
     4    12    11 2
     5    11     4 1
     6     8     5 ar
     7     8     7 ar
     8     5     3 ar
     9     7     1 ar
    10     3     2 ar
    11     1     2 ar
    12     2     6 1
    13     1    13 1
    14     3    14 1
    15     4    15 1
    16     4    16 1
    17     5    17 1
    18     7    18 1
    19     9    19 1
    20     9    20 1
    21    12    21 1
    22    12    22 1
    23    23     4 1
@<TRIPOS>SUBSTRUCTURE
     1 8K5         1 TEMP              0 ****  ****    0 ROOT
