@<TRIPOS>MOLECULE
8K5
   23    23     1     0     0
SMALL
bcc


@<TRIPOS>ATOM
      1 C4           0.0000     0.0000     0.0000 ca         1 8K5      -0.080000
      2 C5           1.3840     0.0000     0.0000 ca         1 8K5       0.008400
      3 C6           2.0740     0.0000     1.2000 ca         1 8K5      -0.080000
      4 N1          -2.1610     0.1610     6.1310 nz         1 8K5       0.156400
      5 C7           1.3820    -0.0020     2.3950 ca         1 8K5      -0.037000
      6 Cl           2.2530     0.0010    -1.5020 cl         1 8K5       0.124600
      7 C3          -0.6910     0.0030     1.1970 ca         1 8K5      -0.037000
      8 C2          -0.0000    -0.0030     2.3940 ca         1 8K5      -0.181300
      9 C1          -0.7550    -0.0040     3.6990 c3         1 8K5       0.151000
     10 S           -1.0580     1.7010     4.2230 ss         1 8K5       0.031700
     11 C           -1.9280     1.4090     5.7270 c2         1 8K5      -0.146900
     12 N           -2.3520     2.4380     6.4610 nv         1 8K5       0.388900
     13 H7          -0.5420     0.0050    -0.9380 ha         1 8K5       0.146000
     14 H8           3.1570     0.0020     1.1800 ha         1 8K5       0.146000
     15 H2          -1.2910    -0.3160     6.2590 hn         1 8K5       0.253467
     16 H3          -2.7060    -0.3170     5.4410 hn         1 8K5       0.253467
     17 H9           1.9220    -0.0050     3.3340 ha         1 8K5       0.111000
     18 H6          -1.7740     0.0070     1.1960 ha         1 8K5       0.111000
     19 H4          -1.7010    -0.5150     3.5690 h1         1 8K5       0.052700
     20 H5          -0.1690    -0.5150     4.4540 h1         1 8K5       0.052700
     21 H           -2.8460     2.2720     7.3160 hn         1 8K5       0.159700
     22 H1          -2.1770     3.3750     6.1580 hn         1 8K5       0.159700
     23 H13         -2.6620     0.1790     6.9970 hn         1 8K5       0.253467
@<TRIPOS>BOND
     1     1     2 ar  
     2     1     7 ar  
     3     1    13 1   
     4     2     3 ar  
     5     2     6 1   
     6     3     5 ar  
     7     3    14 1   
     8     4    11 1   
     9     4    15 1   
    10     4    16 1   
    11     4    23 1   
    12     5     8 ar  
    13     5    17 1   
    14     7     8 ar  
    15     7    18 1   
    16     8     9 1   
    17     9    10 1   
    18     9    19 1   
    19     9    20 1   
    20    10    11 1   
    21    11    12 2   
    22    12    21 1   
    23    12    22 1   
@<TRIPOS>SUBSTRUCTURE
     1 8K5         1 TEMP              0 ****  ****    0 ROOT
