@<TRIPOS>MOLECULE
molecule
   56    55     1     0     0
SMALL
bcc


@<TRIPOS>ATOM
      1 C1           0.0000     0.0000     0.0000 c3         1 8K6      -0.092100
      2 C2           1.5300     0.0000     0.0000 c3         1 8K6      -0.084400
      3 C3           2.0400     0.0000     1.4430 c3         1 8K6      -0.081400
      4 C4           3.5710     0.0000     1.4430 c3         1 8K6      -0.082400
      5 C5           4.0810     0.0000     2.8850 c3         1 8K6      -0.081900
      6 C6           5.6110     0.0000     2.8850 c3         1 8K6      -0.082400
      7 C7           6.1210     0.0000     4.3280 c3         1 8K6      -0.082400
      8 C8           7.6510    -0.0000     4.3260 c3         1 8K6      -0.082400
      9 C9           8.1610     0.0000     5.7690 c3         1 8K6      -0.082400
     10 C10          9.6910    -0.0010     5.7690 c3         1 8K6      -0.082400
     11 C11         10.2010    -0.0010     7.2120 c3         1 8K6      -0.082400
     12 C12         11.7310    -0.0010     7.2110 c3         1 8K6      -0.082400
     13 C13         12.2420    -0.0010     8.6540 c3         1 8K6      -0.082400
     14 C14         13.7720    -0.0010     8.6540 c3         1 8K6      -0.081900
     15 C15         14.2820    -0.0010    10.0950 c3         1 8K6      -0.082400
     16 C16         15.8120    -0.0010    10.0950 c3         1 8K6      -0.081400
     17 C17         16.3220    -0.0010    11.5380 c3         1 8K6      -0.084400
     18 C18         17.8520    -0.0010    11.5380 c3         1 8K6      -0.092100
     19 H11C        -0.3610     0.8850     0.5110 hc         1 8K6       0.032367
     20 H12C        -0.3610    -0.8850     0.5110 hc         1 8K6       0.032367
     21 H13C        -0.3610     0.0000    -1.0210 hc         1 8K6       0.032367
     22 H21C         1.8910     0.8850    -0.5110 hc         1 8K6       0.039700
     23 H22C         1.8910    -0.8850    -0.5110 hc         1 8K6       0.039700
     24 H31C         1.6790     0.8850     1.9540 hc         1 8K6       0.040700
     25 H32C         1.6790    -0.8850     1.9540 hc         1 8K6       0.040700
     26 H41C         3.9320     0.8840     0.9320 hc         1 8K6       0.040700
     27 H42C         3.9320    -0.8840     0.9320 hc         1 8K6       0.040700
     28 H51C         3.7190    -0.8840     3.3950 hc         1 8K6       0.040700
     29 H52C         3.7190     0.8840     3.3950 hc         1 8K6       0.040700
     30 H61C         5.9720    -0.8850     2.3740 hc         1 8K6       0.040700
     31 H62C         5.9720     0.8850     2.3740 hc         1 8K6       0.040700
     32 H71C         5.7600    -0.8850     4.8380 hc         1 8K6       0.040700
     33 H72C         5.7600     0.8850     4.8380 hc         1 8K6       0.040700
     34 H81C         8.0120     0.8850     3.8150 hc         1 8K6       0.040700
     35 H82C         8.0120    -0.8850     3.8150 hc         1 8K6       0.040700
     36 H91C         7.8010     0.8850     6.2800 hc         1 8K6       0.040700
     37 H92C         7.7990    -0.8840     6.2800 hc         1 8K6       0.040700
     38 H101        10.0530     0.8830     5.2580 hc         1 8K6       0.040700
     39 H102        10.0520    -0.8860     5.2590 hc         1 8K6       0.040700
     40 H111         9.8410    -0.8860     7.7230 hc         1 8K6       0.040700
     41 H112         9.8410     0.8840     7.7230 hc         1 8K6       0.040700
     42 H121        12.0920     0.8840     6.7000 hc         1 8K6       0.040700
     43 H122        12.0920    -0.8860     6.7000 hc         1 8K6       0.040700
     44 H131        11.8800    -0.8860     9.1640 hc         1 8K6       0.040700
     45 H132        11.8800     0.8840     9.1640 hc         1 8K6       0.040700
     46 H141        14.1330     0.8830     8.1430 hc         1 8K6       0.040700
     47 H142        14.1330    -0.8850     8.1430 hc         1 8K6       0.040700
     48 H151        13.9210     0.8830    10.6060 hc         1 8K6       0.040700
     49 H152        13.9210    -0.8850    10.6060 hc         1 8K6       0.040700
     50 H161        16.1730    -0.8860     9.5850 hc         1 8K6       0.040700
     51 H162        16.1730     0.8840     9.5850 hc         1 8K6       0.040700
     52 H171        15.9610     0.8840    12.0490 hc         1 8K6       0.039700
     53 H172        15.9610    -0.8850    12.0490 hc         1 8K6       0.039700
     54 H181        18.2130     0.8840    11.0280 hc         1 8K6       0.032367
     55 H182        18.2130    -0.0010    12.5600 hc         1 8K6       0.032367
     56 H183        18.2130    -0.8860    11.0280 hc         1 8K6       0.032367
@<TRIPOS>BOND
     1     1     2 1
     2     2     3 1
     3     3     4 1
     4     4     5 1
     5     5     6 1
     6     6     7 1
     7     7     8 1
     8     8     9 1
     9     9    10 1
    10    10    11 1
    11    11    12 1
    12    12    13 1
    13    13    14 1
    14    14    15 1
    15    15    16 1
    16    16    17 1
    17    17    18 1
    18     1    19 1
    19     1    20 1
    20     1    21 1
    21     2    22 1
    22     2    23 1
    23     3    24 1
    24     3    25 1
    25     4    26 1
    26     4    27 1
    27     5    28 1
    28     5    29 1
    29     6    30 1
    30     6    31 1
    31     7    32 1
    32     7    33 1
    33     8    34 1
    34     8    35 1
    35     9    36 1
    36     9    37 1
    37    10    38 1
    38    10    39 1
    39    11    40 1
    40    11    41 1
    41    12    42 1
    42    12    43 1
    43    13    44 1
    44    13    45 1
    45    14    46 1
    46    14    47 1
    47    15    48 1
    48    15    49 1
    49    16    50 1
    50    16    51 1
    51    17    52 1
    52    17    53 1
    53    18    54 1
    54    18    55 1
    55    18    56 1
@<TRIPOS>SUBSTRUCTURE
     1 8K6         1 TEMP              0 ****  ****    0 ROOT
