@<TRIPOS>MOLECULE
8K6
   56    55     1     0     0
SMALL
bcc


@<TRIPOS>ATOM
      1 C1          0.0080   -0.0000   -0.0120 c3        1 8K6     -0.092100
      2 C2          1.5140    0.0000    0.0150 c3        1 8K6     -0.080400
      3 C3          2.0440   -0.0000    1.4340 c3        1 8K6     -0.079400
      4 C4          3.5580    0.0000    1.4570 c3        1 8K6     -0.079400
      5 C5          4.0860    0.0000    2.8750 c3        1 8K6     -0.079400
      6 C6          5.5990    0.0000    2.8980 c3        1 8K6     -0.079400
      7 C7          6.1280    0.0000    4.3160 c3        1 8K6     -0.079400
      8 C8          7.6410   -0.0000    4.3390 c3        1 8K6     -0.079400
      9 C9          8.1690   -0.0000    5.7580 c3        1 8K6     -0.079400
     10 C10         9.6830   -0.0010    5.7800 c3        1 8K6     -0.079400
     11 C11        10.2110   -0.0010    7.1990 c3        1 8K6     -0.079400
     12 C12        11.7250   -0.0010    7.2220 c3        1 8K6     -0.079400
     13 C13        12.2530   -0.0010    8.6400 c3        1 8K6     -0.079400
     14 C14        13.7660   -0.0010    8.6630 c3        1 8K6     -0.079400
     15 C15        14.2950   -0.0010   10.0820 c3        1 8K6     -0.079400
     16 C16        15.8080   -0.0010   10.1050 c3        1 8K6     -0.079400
     17 C17        16.3380   -0.0010   11.5230 c3        1 8K6     -0.080400
     18 C18        17.8440   -0.0010   11.5510 c3        1 8K6     -0.092100
     19 H11C       -0.3960    0.9050    0.5030 hc        1 8K6      0.032700
     20 H12C       -0.3960   -0.9050    0.5030 hc        1 8K6      0.032700
     21 H13C       -0.3610   -0.0000   -1.0660 hc        1 8K6      0.032700
     22 H21C        1.9010   -0.9020   -0.5280 hc        1 8K6      0.038700
     23 H22C        1.9010    0.9030   -0.5270 hc        1 8K6      0.038700
     24 H31C        1.6590    0.9020    1.9780 hc        1 8K6      0.039700
     25 H32C        1.6600   -0.9030    1.9780 hc        1 8K6      0.039700
     26 H41C        3.9420    0.9030    0.9120 hc        1 8K6      0.039700
     27 H42C        3.9420   -0.9020    0.9120 hc        1 8K6      0.039700
     28 H51C        3.7020    0.9030    3.4200 hc        1 8K6      0.039700
     29 H52C        3.7020   -0.9020    3.4200 hc        1 8K6      0.039700
     30 H61C        5.9840   -0.9020    2.3530 hc        1 8K6      0.039700
     31 H62C        5.9840    0.9030    2.3530 hc        1 8K6      0.039700
     32 H71C        5.7430   -0.9020    4.8610 hc        1 8K6      0.039700
     33 H72C        5.7440    0.9030    4.8610 hc        1 8K6      0.039700
     34 H81C        8.0250   -0.9030    3.7950 hc        1 8K6      0.039700
     35 H82C        8.0260    0.9020    3.7950 hc        1 8K6      0.039700
     36 H91C        7.7850   -0.9030    6.3020 hc        1 8K6      0.039700
     37 H92C        7.7850    0.9020    6.3020 hc        1 8K6      0.039700
     38 H101       10.0670   -0.9030    5.2360 hc        1 8K6      0.039700
     39 H102       10.0680    0.9020    5.2360 hc        1 8K6      0.039700
     40 H111        9.8270   -0.9030    7.7440 hc        1 8K6      0.039700
     41 H112        9.8270    0.9020    7.7430 hc        1 8K6      0.039700
     42 H121       12.1090    0.9010    6.6770 hc        1 8K6      0.039700
     43 H122       12.1090   -0.9040    6.6780 hc        1 8K6      0.039700
     44 H131       11.8680    0.9020    9.1850 hc        1 8K6      0.039700
     45 H132       11.8680   -0.9030    9.1850 hc        1 8K6      0.039700
     46 H141       14.1510   -0.9040    8.1190 hc        1 8K6      0.039700
     47 H142       14.1510    0.9010    8.1190 hc        1 8K6      0.039700
     48 H151       13.9100    0.9010   10.6260 hc        1 8K6      0.039700
     49 H152       13.9100   -0.9040   10.6260 hc        1 8K6      0.039700
     50 H161       16.1930   -0.9040    9.5600 hc        1 8K6      0.039700
     51 H162       16.1930    0.9010    9.5600 hc        1 8K6      0.039700
     52 H171       15.9510   -0.9030   12.0660 hc        1 8K6      0.038700
     53 H172       15.9510    0.9010   12.0660 hc        1 8K6      0.038700
     54 H181       18.2480   -0.9060   11.0360 hc        1 8K6      0.032700
     55 H182       18.2480    0.9040   11.0360 hc        1 8K6      0.032700
     56 H183       18.2130   -0.0010   12.6050 hc        1 8K6      0.032700
@<TRIPOS>BOND
     1    1    2 1   
     2    1   19 1   
     3    1   20 1   
     4    1   21 1   
     5    2    3 1   
     6    2   22 1   
     7    2   23 1   
     8    3    4 1   
     9    3   24 1   
    10    3   25 1   
    11    4    5 1   
    12    4   26 1   
    13    4   27 1   
    14    5    6 1   
    15    5   28 1   
    16    5   29 1   
    17    6    7 1   
    18    6   30 1   
    19    6   31 1   
    20    7    8 1   
    21    7   32 1   
    22    7   33 1   
    23    8    9 1   
    24    8   34 1   
    25    8   35 1   
    26    9   10 1   
    27    9   36 1   
    28    9   37 1   
    29   10   11 1   
    30   10   38 1   
    31   10   39 1   
    32   11   12 1   
    33   11   40 1   
    34   11   41 1   
    35   12   13 1   
    36   12   42 1   
    37   12   43 1   
    38   13   14 1   
    39   13   44 1   
    40   13   45 1   
    41   14   15 1   
    42   14   46 1   
    43   14   47 1   
    44   15   16 1   
    45   15   48 1   
    46   15   49 1   
    47   16   17 1   
    48   16   50 1   
    49   16   51 1   
    50   17   18 1   
    51   17   52 1   
    52   17   53 1   
    53   18   54 1   
    54   18   55 1   
    55   18   56 1   
@<TRIPOS>SUBSTRUCTURE
     1 8K6         1 TEMP              0 ****  ****    0 ROOT
