@<TRIPOS>MOLECULE
8K7
   55    59     1     0     0
SMALL
bcc


@<TRIPOS>ATOM
      1 C13          0.0000     0.0000     0.0000 ca         1 8K7      -0.071500
      2 C18          2.4690     2.4490    -1.1050 c          1 8K7       0.627100
      3 C17          2.0750     0.0000     1.1960 ca         1 8K7      -0.071500
      4 C16          1.3860     0.0010     2.3940 ca         1 8K7      -0.135000
      5 C15          0.0010    -0.0050     2.3950 ca         1 8K7       0.096900
      6 C23          5.9650    -1.5710    -4.3610 c3         1 8K7       0.231700
      7 C24          2.9530     5.0030    -0.9780 cy         1 8K7       0.044500
      8 C11          1.3830     0.0000     0.0000 ca         1 8K7      -0.076300
      9 C12          1.9540     1.3500    -2.0010 c3         1 8K7      -0.109400
     10 C1           1.5940    -1.1140    -2.2060 c3         1 8K7      -0.047700
     11 C2           2.1360    -0.0010    -1.3060 c3         1 8K7       0.030300
     12 C3           3.6220    -0.2400    -1.0370 c3         1 8K7      -0.047700
     13 C4           3.8040    -1.5920    -0.3420 c3         1 8K7      -0.035900
     14 C5           3.2630    -2.7040    -1.2430 c3         1 8K7      -0.031700
     15 C6           1.7760    -2.4650    -1.5120 c3         1 8K7      -0.035900
     16 C7           2.3590    -1.1150    -3.5320 c3         1 8K7      -0.040400
     17 C8           4.0280    -2.7050    -2.5680 c3         1 8K7      -0.057400
     18 C9           3.8460    -1.3540    -3.2620 c3         1 8K7       0.166800
     19 C10          4.3860    -0.2410    -2.3620 c3         1 8K7      -0.040400
     20 C14         -0.6910    -0.0000     1.1960 ca         1 8K7      -0.135000
     21 N19          2.5210     3.7170    -1.5570 nj         1 8K7      -0.204800
     22 O20          2.8340     2.1900     0.0220 o          1 8K7      -0.646100
     23 F21         -0.6750    -0.0040     3.5650 f          1 8K7      -0.132900
     24 O22          4.5600    -1.3540    -4.5000 os         1 8K7      -0.408600
     25 C25          3.1930     5.4560    -2.4300 cy         1 8K7       0.143100
     26 C26          2.1710     4.3770    -2.8300 cy         1 8K7       0.044500
     27 O27          2.7530     6.7900    -2.6960 oh         1 8K7      -0.564800
     28 H43         -0.5410     0.0020    -0.9380 ha         1 8K7       0.124000
     29 H46          3.1580     0.0020     1.1950 ha         1 8K7       0.124000
     30 H45          1.9290    -0.0010     3.3320 ha         1 8K7       0.116000
     31 H48          6.1370    -2.5070    -3.8420 h1         1 8K7      -0.006967
     32 H49          6.4020    -0.7580    -3.7930 h1         1 8K7      -0.006967
     33 H47          6.4230    -1.6130    -5.3420 h1         1 8K7      -0.006967
     34 H50          3.8660     4.9250    -0.4010 h1         1 8K7       0.035450
     35 H41          0.9020     1.5130    -2.2040 hc         1 8K7       0.044700
     36 H42          2.5070     1.3540    -2.9320 hc         1 8K7       0.044700
     37 H28          0.5410    -0.9440    -2.3970 hc         1 8K7       0.053200
     38 H29          4.0050     0.5480    -0.4000 hc         1 8K7       0.053200
     39 H31          3.2630    -1.5910     0.5960 hc         1 8K7       0.027200
     40 H30          4.8570    -1.7610    -0.1520 hc         1 8K7       0.027200
     41 H32          3.3920    -3.6610    -0.7520 hc         1 8K7       0.024700
     42 H34          1.2350    -2.4640    -0.5730 hc         1 8K7       0.027200
     43 H33          1.3930    -3.2530    -2.1490 hc         1 8K7       0.027200
     44 H35          2.2300    -0.1580    -4.0240 hc         1 8K7       0.025700
     45 H36          1.9760    -1.9030    -4.1690 hc         1 8K7       0.025700
     46 H38          5.0800    -2.8750    -2.3780 hc         1 8K7       0.026700
     47 H37          3.6440    -3.4930    -3.2060 hc         1 8K7       0.026700
     48 H40          5.4390    -0.4110    -2.1710 hc         1 8K7       0.025700
     49 H39          4.2580     0.7150    -2.8540 hc         1 8K7       0.025700
     50 H44         -1.7750    -0.0030     1.1960 ha         1 8K7       0.116000
     51 H52          4.1940     5.2370    -2.7790 h1         1 8K7       0.028700
     52 H53          1.1510     4.7430    -2.8540 h1         1 8K7       0.035450
     53 H54          2.4720     3.8080    -3.7020 h1         1 8K7       0.035450
     54 H55          3.4360     7.2630    -3.1440 ho         1 8K7       0.393000
     55 H51          2.1500     5.5420    -0.4910 h1         1 8K7       0.035450
@<TRIPOS>BOND
     1     1     8 ar  
     2     1    20 ar  
     3     1    28 1   
     4     2     9 1   
     5     2    21 1   
     6     2    22 2   
     7     3     4 ar  
     8     3     8 ar  
     9     3    29 1   
    10     4     5 ar  
    11     4    30 1   
    12     5    20 ar  
    13     5    23 1   
    14     6    24 1   
    15     6    31 1   
    16     6    32 1   
    17     6    33 1   
    18     7    21 1   
    19     7    25 1   
    20     7    34 1   
    21     7    55 1   
    22     8    11 1   
    23     9    11 1   
    24     9    35 1   
    25     9    36 1   
    26    10    11 1   
    27    10    15 1   
    28    10    16 1   
    29    10    37 1   
    30    11    12 1   
    31    12    13 1   
    32    12    19 1   
    33    12    38 1   
    34    13    14 1   
    35    13    39 1   
    36    13    40 1   
    37    14    15 1   
    38    14    17 1   
    39    14    41 1   
    40    15    42 1   
    41    15    43 1   
    42    16    18 1   
    43    16    44 1   
    44    16    45 1   
    45    17    18 1   
    46    17    46 1   
    47    17    47 1   
    48    18    19 1   
    49    18    24 1   
    50    19    48 1   
    51    19    49 1   
    52    20    50 1   
    53    21    26 1   
    54    25    26 1   
    55    25    27 1   
    56    25    51 1   
    57    26    52 1   
    58    26    53 1   
    59    27    54 1   
@<TRIPOS>SUBSTRUCTURE
     1 8K7         1 TEMP              0 ****  ****    0 ROOT
