@<TRIPOS>MOLECULE
molecule
   55    59     1     0     0
SMALL
bcc


@<TRIPOS>ATOM
      1 C13          0.0000     0.0000     0.0000 ca         1 8K7      -0.086000
      2 C18          2.4690     2.4490    -1.1050 c          1 8K7       0.692100
      3 C17          2.0750     0.0000     1.1960 ca         1 8K7      -0.086000
      4 C16          1.3860     0.0010     2.3940 ca         1 8K7      -0.172000
      5 C15          0.0010    -0.0050     2.3950 ca         1 8K7       0.128900
      6 C23          5.9650    -1.5710    -4.3610 c3         1 8K7       0.123700
      7 C24          2.9530     5.0030    -0.9780 cy         1 8K7       0.090500
      8 C11          1.3830     0.0000     0.0000 ca         1 8K7      -0.079300
      9 C12          1.9540     1.3500    -2.0010 c3         1 8K7      -0.145400
     10 C1           1.5940    -1.1140    -2.2060 c3         1 8K7      -0.060700
     11 C2           2.1360    -0.0010    -1.3060 c3         1 8K7       0.015300
     12 C3           3.6220    -0.2400    -1.0370 c3         1 8K7      -0.060700
     13 C4           3.8040    -1.5920    -0.3420 c3         1 8K7      -0.076400
     14 C5           3.2630    -2.7040    -1.2430 c3         1 8K7      -0.062700
     15 C6           1.7760    -2.4650    -1.5120 c3         1 8K7      -0.076400
     16 C7           2.3590    -1.1150    -3.5320 c3         1 8K7      -0.079400
     17 C8           4.0280    -2.7050    -2.5680 c3         1 8K7      -0.097400
     18 C9           3.8460    -1.3540    -3.2620 c3         1 8K7       0.153800
     19 C10          4.3860    -0.2410    -2.3620 c3         1 8K7      -0.079400
     20 C14         -0.6910    -0.0000     1.1960 ca         1 8K7      -0.172000
     21 N19          2.5210     3.7170    -1.5570 nj         1 8K7      -0.525800
     22 O20          2.8340     2.1900     0.0220 o          1 8K7      -0.605100
     23 F21         -0.6750    -0.0040     3.5650 f          1 8K7      -0.145900
     24 O22          4.5600    -1.3540    -4.5000 os         1 8K7      -0.424600
     25 C25          3.1930     5.4560    -2.4300 cy         1 8K7       0.095100
     26 C26          2.1710     4.3770    -2.8300 cy         1 8K7       0.090500
     27 O27          2.7530     6.7900    -2.6960 oh         1 8K7      -0.589800
     28 H43         -0.5410     0.0020    -0.9380 ha         1 8K7       0.142500
     29 H46          3.1580     0.0020     1.1950 ha         1 8K7       0.142500
     30 H45          1.9290    -0.0010     3.3320 ha         1 8K7       0.141500
     31 H48          6.1370    -2.5070    -3.8420 h1         1 8K7       0.031033
     32 H49          6.4020    -0.7580    -3.7930 h1         1 8K7       0.031033
     33 H47          6.4230    -1.6130    -5.3420 h1         1 8K7       0.031033
     34 H50          3.8660     4.9250    -0.4010 h1         1 8K7       0.067950
     35 H41          0.9020     1.5130    -2.2040 hc         1 8K7       0.069200
     36 H42          2.5070     1.3540    -2.9320 hc         1 8K7       0.069200
     37 H28          0.5410    -0.9440    -2.3970 hc         1 8K7       0.071200
     38 H29          4.0050     0.5480    -0.4000 hc         1 8K7       0.071200
     39 H31          3.2630    -1.5910     0.5960 hc         1 8K7       0.050450
     40 H30          4.8570    -1.7610    -0.1520 hc         1 8K7       0.050450
     41 H32          3.3920    -3.6610    -0.7520 hc         1 8K7       0.051700
     42 H34          1.2350    -2.4640    -0.5730 hc         1 8K7       0.050450
     43 H33          1.3930    -3.2530    -2.1490 hc         1 8K7       0.050450
     44 H35          2.2300    -0.1580    -4.0240 hc         1 8K7       0.049950
     45 H36          1.9760    -1.9030    -4.1690 hc         1 8K7       0.049950
     46 H38          5.0800    -2.8750    -2.3780 hc         1 8K7       0.049200
     47 H37          3.6440    -3.4930    -3.2060 hc         1 8K7       0.049200
     48 H40          5.4390    -0.4110    -2.1710 hc         1 8K7       0.049950
     49 H39          4.2580     0.7150    -2.8540 hc         1 8K7       0.049950
     50 H44         -1.7750    -0.0030     1.1960 ha         1 8K7       0.141500
     51 H52          4.1940     5.2370    -2.7790 h1         1 8K7       0.065700
     52 H53          1.1510     4.7430    -2.8540 h1         1 8K7       0.067950
     53 H54          2.4720     3.8080    -3.7020 h1         1 8K7       0.067950
     54 H55          3.4360     7.2630    -3.1440 ho         1 8K7       0.407000
     55 H51          2.1500     5.5420    -0.4910 h1         1 8K7       0.067950
@<TRIPOS>BOND
     1    17    14 1   
     2    17    18 1   
     3    14    15 1   
     4    14    13 1   
     5    24    18 1   
     6    24     6 1   
     7    15    10 1   
     8    13    12 1   
     9    18    16 1   
    10    18    19 1   
    11    16    10 1   
    12    19    12 1   
    13    10    11 1   
    14    12    11 1   
    15    11     8 1   
    16    11     9 1   
    17     8     1 ar  
    18     8     3 ar  
    19     1    20 ar  
    20    20     5 ar  
    21     3     4 ar  
    22     5     4 ar  
    23     5    23 1   
    24     9     2 1   
    25    22     2 2   
    26     2    21 1   
    27    21     7 1   
    28    21    26 1   
    29     7    25 1   
    30    26    25 1   
    31    25    27 1   
    32     1    28 1   
    33     3    29 1   
    34     4    30 1   
    35     6    31 1   
    36     6    32 1   
    37     6    33 1   
    38     7    55 1   
    39     7    34 1   
    40     9    35 1   
    41     9    36 1   
    42    10    37 1   
    43    12    38 1   
    44    13    39 1   
    45    13    40 1   
    46    14    41 1   
    47    15    42 1   
    48    15    43 1   
    49    16    44 1   
    50    16    45 1   
    51    17    46 1   
    52    17    47 1   
    53    19    48 1   
    54    19    49 1   
    55    20    50 1   
    56    25    51 1   
    57    26    52 1   
    58    26    53 1   
    59    27    54 1   
@<TRIPOS>SUBSTRUCTURE
     1 8K7         1 TEMP              0 ****  ****    0 ROOT
