@<TRIPOS>MOLECULE
8K8
   58    62     1     0     0
SMALL
bcc


@<TRIPOS>ATOM
      1 C10          0.0000     0.0000     0.0000 c3         1 8K8      -0.060400
      2 C13          2.2590    -1.2000    -2.0300 cc         1 8K8       0.328200
      3 C14          2.7210    -1.1740    -3.3390 cd         1 8K8      -0.572200
      4 C16          2.4980    -3.2510    -2.6750 cd         1 8K8       0.249800
      5 C18          2.4970    -4.7590    -2.6530 c3         1 8K8      -0.083300
      6 C21          1.1420    -6.3470    -1.3220 c3         1 8K8      -0.030400
      7 C22          2.3460    -5.3630    -1.2270 c3         1 8K8      -0.030700
      8 C23          3.5590    -6.3250    -1.0560 c3         1 8K8      -0.030400
      9 C24          3.7900    -6.7770    -2.5240 c3         1 8K8      -0.040200
     10 C25          3.7930    -5.3950    -3.2360 c3         1 8K8      -0.030900
     11 C26          2.5600    -7.5570    -2.9970 c3         1 8K8      -0.012400
     12 C27          2.9380     0.0710    -3.9680 c          1 8K8       0.685100
     13 C01          5.9890     4.7980    -4.0900 c3         1 8K8       0.006900
     14 C02          4.5590     4.3200    -4.3440 c3         1 8K8      -0.021400
     15 C03          4.3480     2.9610    -3.6730 c3         1 8K8      -0.048400
     16 N05          2.6900     1.2070    -3.2820 n          1 8K8      -0.081400
     17 C06          2.2420     1.1670    -2.0150 c          1 8K8       0.601500
     18 O07          2.0290     2.2110    -1.4290 o          1 8K8      -0.708500
     19 N08          2.0180    -0.0000    -1.3820 n          1 8K8      -0.000300
     20 C09          1.5300     0.0000     0.0000 c3         1 8K8       0.033000
     21 C11         -0.5100     0.0000     1.4430 c3         1 8K8       0.233400
     22 O12         -1.9380     0.0000     1.4430 oh         1 8K8      -0.592800
     23 N15          2.8650    -2.4910    -3.7260 na         1 8K8       0.355100
     24 N17          2.1420    -2.4830    -1.6780 nc         1 8K8      -0.621000
     25 C19          1.3720    -5.3980    -3.5180 c3         1 8K8      -0.030900
     26 C20          1.2430    -6.8000    -2.8040 c3         1 8K8      -0.040200
     27 H1          -0.3610    -0.8850    -0.5110 hc         1 8K8       0.035200
     28 H2           1.2720    -7.1860    -0.6490 hc         1 8K8       0.023700
     29 H3           0.2060    -5.8350    -1.1350 hc         1 8K8       0.023700
     30 H4           2.2530    -4.6250    -0.4380 hc         1 8K8       0.065700
     31 H5           4.4230    -5.7980    -0.6720 hc         1 8K8       0.023700
     32 H6           3.3010    -7.1680    -0.4260 hc         1 8K8       0.023700
     33 H7           4.7180    -7.3210    -2.6560 hc         1 8K8       0.037700
     34 H8           4.6680    -4.8180    -2.9610 hc         1 8K8       0.023200
     35 H9           3.7210    -5.5110    -4.3110 hc         1 8K8       0.023200
     36 H10          2.5080    -8.4890    -2.4460 hc         1 8K8       0.014200
     37 H11          2.6780    -7.7840    -4.0500 hc         1 8K8       0.014200
     38 H12          6.6890     4.0800    -4.5000 hc         1 8K8       0.000700
     39 H13          6.1540     4.8930    -3.0230 hc         1 8K8       0.000700
     40 H14          6.1390     5.7600    -4.5650 hc         1 8K8       0.000700
     41 H15          3.8600     5.0380    -3.9340 hc         1 8K8       0.014700
     42 H16          4.3950     4.2240    -5.4110 hc         1 8K8       0.014700
     43 H17          4.5120     3.0570    -2.6060 hc         1 8K8       0.026200
     44 H18          5.0390     2.2340    -4.0810 hc         1 8K8       0.026200
     45 H19          2.7470     2.4080    -4.9940 h1         1 8K8       0.049700
     46 H20          2.2220     3.2330    -3.5200 h1         1 8K8       0.049700
     47 H21          1.8910     0.8850     0.5110 h1         1 8K8       0.045200
     48 H22         -0.1480     0.8840     1.9540 h1         1 8K8      -0.015300
     49 H23         -0.1490    -0.8850     1.9540 h1         1 8K8      -0.015300
     50 H24         -2.2530     0.0000     2.3310 ho         1 8K8       0.390000
     51 H25          3.0300    -2.8160    -4.6570 hn         1 8K8       0.132700
     52 H27          1.6850    -5.5100    -4.5490 hc         1 8K8       0.023200
     53 H28          0.4510    -4.8330    -3.4430 hc         1 8K8       0.023200
     54 H29          0.3760    -7.3610    -3.1320 hc         1 8K8       0.037700
     55 H30         -0.3610     0.8850    -0.5110 hc         1 8K8       0.035200
     56 H31          1.8910    -0.8840     0.5110 h1         1 8K8       0.045200
     57 O28          3.3430     0.1210    -5.1150 o          1 8K8      -0.684500
     58 C04          2.9110     2.5030    -3.9280 c3         1 8K8       0.036000
@<TRIPOS>BOND
     1     1    20 1   
     2     1    21 1   
     3     1    27 1   
     4     1    55 1   
     5     2     3 2   
     6     2    19 1   
     7     2    24 1   
     8     3    12 1   
     9     3    23 1   
    10     4     5 1   
    11     4    23 1   
    12     4    24 2   
    13     5     7 1   
    14     5    10 1   
    15     5    25 1   
    16     6     7 1   
    17     6    26 1   
    18     6    28 1   
    19     6    29 1   
    20     7     8 1   
    21     7    30 1   
    22     8     9 1   
    23     8    31 1   
    24     8    32 1   
    25     9    10 1   
    26     9    11 1   
    27     9    33 1   
    28    10    34 1   
    29    10    35 1   
    30    11    26 1   
    31    11    36 1   
    32    11    37 1   
    33    12    16 1   
    34    12    57 2   
    35    13    14 1   
    36    13    38 1   
    37    13    39 1   
    38    13    40 1   
    39    14    15 1   
    40    14    41 1   
    41    14    42 1   
    42    15    43 1   
    43    15    44 1   
    44    15    58 1   
    45    16    17 1   
    46    16    58 1   
    47    17    18 2   
    48    17    19 1   
    49    19    20 1   
    50    20    47 1   
    51    20    56 1   
    52    21    22 1   
    53    21    48 1   
    54    21    49 1   
    55    22    50 1   
    56    23    51 1   
    57    25    26 1   
    58    25    52 1   
    59    25    53 1   
    60    26    54 1   
    61    45    58 1   
    62    46    58 1   
@<TRIPOS>SUBSTRUCTURE
     1 8K8         1 TEMP              0 ****  ****    0 ROOT
