@<TRIPOS>MOLECULE
8K9
   79    82     1     0     0
SMALL
bcc


@<TRIPOS>ATOM
      1 C1           0.0000     0.0000     0.0000 c3         1 8K9      -0.003700
      2 C2           1.5300     0.0000     0.0000 c3         1 8K9      -0.000100
      3 C3          -0.5100     0.0000     1.4430 c3         1 8K9      -0.031400
      4 C4           0.0000    -1.2500     2.1630 c3         1 8K9      -0.011100
      5 C5          -0.5030     1.2310    -0.7090 ca         1 8K9      -0.112300
      6 C6          -0.1680     1.4500    -2.0330 ca         1 8K9      -0.078000
      7 C7          -0.6270     2.5760    -2.6860 ca         1 8K9      -0.100300
      8 C8          -0.2630     2.8140    -4.1290 c3         1 8K9       0.003300
      9 C9           0.6190     1.6670    -4.6270 c3         1 8K9      -0.005100
     10 C24         -2.5870    11.2850    -4.8760 c          1 8K9       0.586700
     11 N1          -3.8530    10.8760    -4.6180 n          1 8K9       0.166000
     12 C19         -4.5830    11.5890    -3.5690 c3         1 8K9       0.017000
     13 C23         -1.8980    10.8100    -6.0000 cc         1 8K9      -0.249200
     14 C22         -2.4920     9.8760    -6.7980 cd         1 8K9      -0.009000
     15 C21         -3.7630     9.4010    -6.4540 cd         1 8K9      -0.229000
     16 C20         -4.4030     9.8820    -5.3540 cc         1 8K9      -0.085600
     17 C26         -5.7090     9.2290    -4.9630 c3         1 8K9       0.011500
     18 C25         -6.5800    10.2500    -4.2220 c3         1 8K9      -0.031400
     19 C18         -5.7640    10.7880    -3.0430 c3         1 8K9      -0.058700
     20 C17         -5.3120     9.6510    -2.1380 c3         1 8K9       0.155800
     21 C27         -5.3820     8.0860    -3.9870 c3         1 8K9       0.142800
     22 C16         -4.0790     7.5740    -2.0090 c3         1 8K9       0.120800
     23 C15         -3.1060     6.6780    -2.7780 c3         1 8K9       0.173100
     24 O2          -1.9460     7.4320    -3.1360 oh         1 8K9      -0.560800
     25 C14         -2.6950     5.4980    -1.8970 c3         1 8K9       0.157400
     26 C13         -1.4250     3.4910    -2.0120 ca         1 8K9       0.145100
     27 C12         -1.5370     2.8800    -4.9730 c3         1 8K9      -0.005100
     28 C10          0.5000     4.1340    -4.2520 c3         1 8K9      -0.035400
     29 C11          1.7540     4.0830    -3.3770 c3         1 8K9      -0.010100
     30 C28         -1.7590     3.2690    -0.6830 ca         1 8K9      -0.208000
     31 C29         -1.3020     2.1380    -0.0370 ca         1 8K9      -0.077000
     32 C           -0.5110    -1.2490    -0.7210 c3         1 8K9      -0.000100
     33 H1           1.8910     0.1400    -1.0120 hc         1 8K9       0.008867
     34 H2           1.8910    -0.9460     0.3840 hc         1 8K9       0.008867
     35 H3           1.8910     0.8060     0.6270 hc         1 8K9       0.008867
     36 H4          -1.5940    -0.0000     1.4430 hc         1 8K9       0.020200
     37 H5          -0.1490     0.8840     1.9540 hc         1 8K9       0.020200
     38 H6          -0.3950    -2.1340     1.6770 hc         1 8K9       0.006367
     39 H7           1.0830    -1.2710     2.1270 hc         1 8K9       0.006367
     40 H8          -0.3260    -1.2290     3.1960 hc         1 8K9       0.006367
     41 H9           0.4540     0.7360    -2.5580 ha         1 8K9       0.129000
     42 H10          0.9540     1.8810    -5.6350 hc         1 8K9       0.009867
     43 H11          1.4790     1.5620    -3.9760 hc         1 8K9       0.009867
     44 H12          0.0500     0.7450    -4.6240 hc         1 8K9       0.009867
     45 H13         -3.9030    11.7710    -2.7460 h1         1 8K9       0.047700
     46 H14         -4.9610    12.5140    -3.9890 h1         1 8K9       0.047700
     47 H15         -0.9150    11.1940    -6.2440 ha         1 8K9       0.134000
     48 H17         -1.9800     9.4930    -7.6730 ha         1 8K9       0.102000
     49 H18         -4.2470     8.6590    -7.0770 ha         1 8K9       0.119000
     50 H20         -6.2240     8.8490    -5.8370 hc         1 8K9       0.046700
     51 H21         -6.8410    11.0630    -4.8890 hc         1 8K9       0.025700
     52 H22         -7.4800     9.7700    -3.8570 hc         1 8K9       0.025700
     53 H23         -6.3960    11.4510    -2.4660 hc         1 8K9       0.037700
     54 H24         -4.6750    10.0510    -1.3590 h1         1 8K9       0.014200
     55 H25         -6.1830     9.1880    -1.6900 h1         1 8K9       0.014200
     56 H26         -4.8240     7.3150    -4.5030 h1         1 8K9       0.022700
     57 H27         -6.3000     7.6760    -3.5860 h1         1 8K9       0.022700
     58 H29         -3.5710     8.0140    -1.1600 h1         1 8K9       0.014700
     59 H30         -4.9170     6.9820    -1.6610 h1         1 8K9       0.014700
     60 H31         -3.5870     6.3080    -3.6760 h1         1 8K9       0.053700
     61 H32         -1.5090     7.7270    -2.3540 ho         1 8K9       0.391000
     62 H33         -3.5810     4.9770    -1.5540 h1         1 8K9       0.006700
     63 H34         -2.1360     5.8620    -1.0430 h1         1 8K9       0.006700
     64 H35         -2.3310     2.3400    -4.4720 hc         1 8K9       0.009867
     65 H36         -1.8310     3.9150    -5.1030 hc         1 8K9       0.009867
     66 H37         -1.3520     2.4330    -5.9420 hc         1 8K9       0.009867
     67 H38          0.7860     4.2900    -5.2850 hc         1 8K9       0.029700
     68 H39         -0.1350     4.9500    -3.9270 hc         1 8K9       0.029700
     69 H40          2.2960     5.0170    -3.4700 hc         1 8K9       0.004700
     70 H41          1.4680     3.9340    -2.3430 hc         1 8K9       0.004700
     71 H42          2.3860     3.2650    -3.7000 hc         1 8K9       0.004700
     72 H43         -2.3830     3.9800    -0.1550 ha         1 8K9       0.115000
     73 H44         -1.5620     1.9650     1.0000 ha         1 8K9       0.116000
     74 H45         -0.0610    -2.1300    -0.2790 hc         1 8K9       0.008867
     75 H46         -1.5880    -1.3060    -0.6250 hc         1 8K9       0.008867
     76 H47         -0.2440    -1.1950    -1.7690 hc         1 8K9       0.008867
     77 O           -1.8780     4.6000    -2.6530 os         1 8K9      -0.284900
     78 N           -4.5670     8.6400    -2.8940 n3         1 8K9      -0.525600
     79 O1          -2.0430    12.0790    -4.1240 o          1 8K9      -0.721500
@<TRIPOS>BOND
     1     1     2 1   
     2     1     3 1   
     3     1     5 1   
     4     1    32 1   
     5     2    33 1   
     6     2    34 1   
     7     2    35 1   
     8     3     4 1   
     9     3    36 1   
    10     3    37 1   
    11     4    38 1   
    12     4    39 1   
    13     4    40 1   
    14     5     6 ar  
    15     5    31 ar  
    16     6     7 ar  
    17     6    41 1   
    18     7     8 1   
    19     7    26 ar  
    20     8     9 1   
    21     8    27 1   
    22     8    28 1   
    23     9    42 1   
    24     9    43 1   
    25     9    44 1   
    26    10    11 1   
    27    10    13 1   
    28    10    79 2   
    29    11    12 1   
    30    11    16 1   
    31    12    19 1   
    32    12    45 1   
    33    12    46 1   
    34    13    14 2   
    35    13    47 1   
    36    14    15 1   
    37    14    48 1   
    38    15    16 2   
    39    15    49 1   
    40    16    17 1   
    41    17    18 1   
    42    17    21 1   
    43    17    50 1   
    44    18    19 1   
    45    18    51 1   
    46    18    52 1   
    47    19    20 1   
    48    19    53 1   
    49    20    54 1   
    50    20    55 1   
    51    20    78 1   
    52    21    56 1   
    53    21    57 1   
    54    21    78 1   
    55    22    23 1   
    56    22    58 1   
    57    22    59 1   
    58    22    78 1   
    59    23    24 1   
    60    23    25 1   
    61    23    60 1   
    62    24    61 1   
    63    25    62 1   
    64    25    63 1   
    65    25    77 1   
    66    26    30 ar  
    67    26    77 1   
    68    27    64 1   
    69    27    65 1   
    70    27    66 1   
    71    28    29 1   
    72    28    67 1   
    73    28    68 1   
    74    29    69 1   
    75    29    70 1   
    76    29    71 1   
    77    30    31 ar  
    78    30    72 1   
    79    31    73 1   
    80    32    74 1   
    81    32    75 1   
    82    32    76 1   
@<TRIPOS>SUBSTRUCTURE
     1 8K9         1 TEMP              0 ****  ****    0 ROOT
