@<TRIPOS>MOLECULE
8KA
   62    67     1     0     0
SMALL
bcc


@<TRIPOS>ATOM
      1 N14          0.0000     0.0000     0.0000 nj         1 8KA      -0.191800
      2 C13         -0.9710    -0.4230    -0.8340 c          1 8KA       0.632100
      3 C18          1.4710     0.0000     0.0000 cy         1 8KA       0.035000
      4 C17          1.4170     0.0000     1.5330 cy         1 8KA       0.145100
      5 C16          0.0550     0.6700     1.3080 cy         1 8KA       0.035000
      6 C20         -2.3980    -2.4370    -3.1450 ca         1 8KA      -0.093500
      7 C21         -2.1510    -3.7600    -3.4540 ca         1 8KA      -0.099000
      8 C22         -2.5490    -4.7630    -2.5730 cp         1 8KA      -0.043000
      9 C23         -3.1940    -4.4250    -1.3850 ca         1 8KA      -0.099000
     10 C24         -3.4370    -3.1000    -1.0870 ca         1 8KA      -0.093500
     11 C11         -3.0390    -2.1070    -1.9640 ca         1 8KA      -0.056300
     12 C12         -2.4180    -0.2350    -0.4620 c3         1 8KA      -0.107400
     13 C27         -2.4400    -8.5130    -2.3250 ca         1 8KA      -0.129000
     14 C1          -3.3060    -0.6610    -1.6340 c3         1 8KA       0.030300
     15 C2          -5.6210     1.4210    -3.3030 c3         1 8KA       0.201100
     16 C3          -4.7760    -0.4890    -1.2490 c3         1 8KA      -0.052700
     17 C4          -2.9930     0.2070    -2.8530 c3         1 8KA      -0.052700
     18 C5          -5.6640    -0.9150    -2.4200 c3         1 8KA      -0.024900
     19 C6          -3.8800    -0.2190    -4.0250 c3         1 8KA      -0.024900
     20 C7          -5.3500    -0.0460    -3.6390 c3         1 8KA      -0.055200
     21 C8          -3.2630     1.6750    -2.5170 c3         1 8KA      -0.024900
     22 C9          -4.7330     1.8480    -2.1320 c3         1 8KA      -0.055200
     23 C10         -5.0470     0.9790    -0.9120 c3         1 8KA      -0.024900
     24 O15         -0.6780    -0.9560    -1.8840 o          1 8KA      -0.645100
     25 O19          1.3400    -1.3010     2.1180 oh         1 8KA      -0.549800
     26 C25         -2.2870    -6.1870    -2.8990 cp         1 8KA      -0.030000
     27 C26         -2.6850    -7.1900    -2.0180 ca         1 8KA      -0.079000
     28 C28         -1.7940    -8.8430    -3.5060 ca         1 8KA       0.095900
     29 C29         -1.3960    -7.8480    -4.3840 ca         1 8KA      -0.129000
     30 C30         -1.6420    -6.5240    -4.0870 ca         1 8KA      -0.079000
     31 F31         -1.5510   -10.1390    -3.8010 f          1 8KA      -0.131900
     32 O32         -6.9940     1.5830    -2.9440 oh         1 8KA      -0.584800
     33 H52          1.8930    -0.9110    -0.4070 h1         1 8KA       0.032950
     34 H51          1.8930     0.9110    -0.4070 h1         1 8KA       0.032950
     35 H50          2.1470     0.6620     1.9840 h1         1 8KA       0.019700
     36 H49          0.1230     1.7480     1.2280 h1         1 8KA       0.032950
     37 H48         -0.7070     0.3180     1.9940 h1         1 8KA       0.032950
     38 H55         -1.6490    -4.0160    -4.3790 ha         1 8KA       0.107500
     39 H56         -3.5060    -5.2010    -0.6970 ha         1 8KA       0.107500
     40 H57         -3.9380    -2.8360    -0.1640 ha         1 8KA       0.121500
     41 H46         -2.6500    -0.8400     0.4060 hc         1 8KA       0.043200
     42 H47         -2.5990     0.8090    -0.2330 hc         1 8KA       0.043200
     43 H59         -2.7490    -9.2930    -1.6410 ha         1 8KA       0.116500
     44 H33         -5.3990     2.0360    -4.1670 h1         1 8KA      -0.002300
     45 H34         -4.9980    -1.1040    -0.3850 hc         1 8KA       0.051700
     46 H35         -1.9510     0.0850    -3.1260 hc         1 8KA       0.051700
     47 H36         -6.7050    -0.7930    -2.1470 hc         1 8KA       0.023325
     48 H37         -5.4730    -1.9550    -2.6580 hc         1 8KA       0.023325
     49 H38         -3.6580     0.3960    -4.8890 hc         1 8KA       0.023325
     50 H39         -3.6890    -1.2590    -4.2630 hc         1 8KA       0.023325
     51 H40         -5.9780    -0.3480    -4.4690 hc         1 8KA       0.026200
     52 H42         -2.6340     1.9770    -1.6880 hc         1 8KA       0.023325
     53 H41         -3.0410     2.2900    -3.3810 hc         1 8KA       0.023325
     54 H43         -4.9250     2.8880    -1.8940 hc         1 8KA       0.026200
     55 H44         -6.0880     1.1010    -0.6400 hc         1 8KA       0.023325
     56 H45         -4.4190     1.2810    -0.0830 hc         1 8KA       0.023325
     57 H53          1.9780    -1.3740     2.8090 ho         1 8KA       0.393000
     58 H58         -3.1910    -6.9320    -1.0950 ha         1 8KA       0.116500
     59 H60         -0.8920    -8.1110    -5.3070 ha         1 8KA       0.116500
     60 H61         -1.3310    -5.7460    -4.7740 ha         1 8KA       0.116500
     61 H62         -7.3890     2.2350    -3.4990 ho         1 8KA       0.384000
     62 H54         -2.0890    -1.6560    -3.8290 ha         1 8KA       0.121500
@<TRIPOS>BOND
     1     1     2 1   
     2     1     3 1   
     3     1     5 1   
     4     2    12 1   
     5     2    24 2   
     6     3     4 1   
     7     3    33 1   
     8     3    34 1   
     9     4     5 1   
    10     4    25 1   
    11     4    35 1   
    12     5    36 1   
    13     5    37 1   
    14     6     7 ar  
    15     6    11 ar  
    16     6    62 1   
    17     7     8 ar  
    18     7    38 1   
    19     8     9 ar  
    20     8    26 1   
    21     9    10 ar  
    22     9    39 1   
    23    10    11 ar  
    24    10    40 1   
    25    11    14 1   
    26    12    14 1   
    27    12    41 1   
    28    12    42 1   
    29    13    27 ar  
    30    13    28 ar  
    31    13    43 1   
    32    14    16 1   
    33    14    17 1   
    34    15    20 1   
    35    15    22 1   
    36    15    32 1   
    37    15    44 1   
    38    16    18 1   
    39    16    23 1   
    40    16    45 1   
    41    17    19 1   
    42    17    21 1   
    43    17    46 1   
    44    18    20 1   
    45    18    47 1   
    46    18    48 1   
    47    19    20 1   
    48    19    49 1   
    49    19    50 1   
    50    20    51 1   
    51    21    22 1   
    52    21    52 1   
    53    21    53 1   
    54    22    23 1   
    55    22    54 1   
    56    23    55 1   
    57    23    56 1   
    58    25    57 1   
    59    26    27 ar  
    60    26    30 ar  
    61    27    58 1   
    62    28    29 ar  
    63    28    31 1   
    64    29    30 ar  
    65    29    59 1   
    66    30    60 1   
    67    32    61 1   
@<TRIPOS>SUBSTRUCTURE
     1 8KA         1 TEMP              0 ****  ****    0 ROOT
