@<TRIPOS>MOLECULE
molecule
   19    19     1     0     0
SMALL
bcc


@<TRIPOS>ATOM
      1 C4           0.0000     0.0000     0.0000 c3         1 8KB       0.136400
      2 O            1.9770    -1.1630    -0.6880 oh         1 8KB      -0.603800
      3 C            1.5100     0.0000     0.0000 c3         1 8KB       0.110100
      4 O1          -0.4420     1.3660    -0.0460 os         1 8KB      -0.427600
      5 C3          -0.4500     2.0630     1.1270 c3         1 8KB       0.150400
      6 C2           0.9680     2.1720     1.7280 c3         1 8KB       0.113800
      7 N            1.3280     0.9030     2.3250 n7         1 8KB      -0.835200
      8 C1           2.0800     0.0000     1.4240 c3         1 8KB       0.150800
      9 H9          -0.3650    -0.4720     0.9040 h1         1 8KB       0.067200
     10 H10         -0.3650    -0.5320    -0.8700 h1         1 8KB       0.067200
     11 H1           2.4850    -0.9020    -1.4380 ho         1 8KB       0.405000
     12 H            1.8610     0.8850    -0.5170 h1         1 8KB       0.043700
     13 H7          -0.8320     3.0600     0.9420 h1         1 8KB       0.048200
     14 H8          -1.0950     1.5560     1.8340 h1         1 8KB       0.048200
     15 H5           0.9800     2.9450     2.4860 h1         1 8KB       0.038700
     16 H6           1.6750     2.4150     0.9440 h1         1 8KB       0.038700
     17 H11          1.8620     1.0650     3.1560 hn         1 8KB       0.362800
     18 H2           2.0330    -1.0070     1.8200 h1         1 8KB       0.043200
     19 H3           3.1130     0.3220     1.3880 h1         1 8KB       0.043200
@<TRIPOS>BOND
     1     1     4 1   
     2     1     3 1   
     3     4     5 1   
     4     2     3 1   
     5     5     6 1   
     6     3     8 1   
     7     6     7 1   
     8     8     7 1   
     9     1     9 1   
    10     1    10 1   
    11     2    11 1   
    12     3    12 1   
    13     5    13 1   
    14     5    14 1   
    15     6    15 1   
    16     6    16 1   
    17     7    17 1   
    18     8    18 1   
    19     8    19 1   
@<TRIPOS>SUBSTRUCTURE
     1 8KB         1 TEMP              0 ****  ****    0 ROOT
