@<TRIPOS>MOLECULE
8KK
   59    59     1     0     0
SMALL
bcc


@<TRIPOS>ATOM
      1 C10          0.0000     0.0000     0.0000 c3         1 8KK       0.020800
      2 C11         -0.8090    -1.1630    -1.9820 c          1 8KK       0.658100
      3 C12         -1.5840    -2.4520    -3.8360 c3         1 8KK       0.298700
      4 C13         -2.0650    -2.2540    -5.2500 ca         1 8KK      -0.102300
      5 C14         -1.1620    -2.2690    -6.2970 ca         1 8KK      -0.076500
      6 C15         -1.6040    -2.0880    -7.5930 ca         1 8KK      -0.112500
      7 C16         -2.9500    -1.8930    -7.8440 ca         1 8KK      -0.104000
      8 O01          2.3590     1.3150    -0.7590 o          1 8KK      -0.625000
      9 P01          1.8230     0.0000     0.0000 p5         1 8KK       0.466500
     10 N01          2.3840     0.0000     1.5870 n7         1 8KK      -0.571300
     11 C01          3.8490     0.1100     1.6270 c3         1 8KK       0.124500
     12 C02          4.2630     0.9630     2.8290 c3         1 8KK      -0.029400
     13 C03          3.7600     2.3940     2.6360 c3         1 8KK      -0.047700
     14 C04          4.4810     3.0330     1.4480 c3         1 8KK      -0.004100
     15 C05          4.0400     3.2080     3.9000 c3         1 8KK      -0.004100
     16 C06          4.4520    -1.2650     1.7560 c          1 8KK       0.566100
     17 N02          5.7910    -1.4100     1.8110 ns         1 8KK      -0.257900
     18 C07          6.3790    -2.7470     1.9350 c3         1 8KK       0.074000
     19 C08          7.9040    -2.6330     1.9780 c3         1 8KK      -0.051400
     20 C09          8.5160    -4.0280     2.1070 c3         1 8KK      -0.049200
     21 N03          9.9800    -3.9180     2.1470 nz         1 8KK       0.082400
     22 O02          3.7340    -2.2400     1.8070 o          1 8KK      -0.596100
     23 O03          2.3170    -1.2080    -0.6980 o          1 8KK      -0.625000
     24 N04         -0.4880     0.0000    -1.3810 ns         1 8KK      -0.073900
     25 O04         -1.2580    -1.1630    -3.2520 os         1 8KK      -0.433900
     26 C17         -3.8530    -1.8780    -6.7980 ca         1 8KK      -0.112500
     27 C18         -3.4120    -2.0660    -5.5010 ca         1 8KK      -0.076500
     28 O05         -0.6920    -2.2120    -1.3800 o          1 8KK      -0.668000
     29 H1          -0.3610     0.8840     0.5110 h1         1 8KK       0.031200
     30 H2          -0.3610    -0.8850     0.5110 h1         1 8KK       0.031200
     31 H3          -0.7010    -3.0800    -3.8390 h1         1 8KK       0.011200
     32 H4          -2.3630    -2.9260    -3.2520 h1         1 8KK       0.011200
     33 H5          -0.1070    -2.4210    -6.1000 ha         1 8KK       0.108500
     34 H6          -0.8960    -2.0990    -8.4130 ha         1 8KK       0.097500
     35 H7          -3.2960    -1.7480    -8.8610 ha         1 8KK       0.095000
     36 H9           1.9020    -0.5270     2.2880 hn         1 8KK       0.287800
     37 H10          4.2020     0.5760     0.7150 h1         1 8KK       0.090700
     38 H11          5.3430     0.9680     2.9130 hc         1 8KK      -0.006300
     39 H12          3.8330     0.5470     3.7320 hc         1 8KK      -0.006300
     40 H13          2.6940     2.3790     2.4450 hc         1 8KK       0.062700
     41 H14          4.3750     2.3980     0.5770 hc         1 8KK       0.001700
     42 H15          4.0480     4.0040     1.2420 hc         1 8KK       0.001700
     43 H16          5.5320     3.1490     1.6830 hc         1 8KK       0.001700
     44 H17          3.7530     4.2400     3.7370 hc         1 8KK       0.001700
     45 H18          3.4680     2.8000     4.7260 hc         1 8KK       0.001700
     46 H19          5.0960     3.1590     4.1340 hc         1 8KK       0.001700
     47 H20          6.3840    -0.6070     1.7480 hn         1 8KK       0.176500
     48 H21          6.0260    -3.2130     2.8470 h1         1 8KK       0.029700
     49 H22          6.0860    -3.3500     1.0850 h1         1 8KK       0.029700
     50 H23          8.1970    -2.0290     2.8280 hc         1 8KK       0.032200
     51 H24          8.2560    -2.1670     1.0660 hc         1 8KK       0.032200
     52 H25          8.2230    -4.6320     1.2570 hx         1 8KK       0.088200
     53 H26          8.1640    -4.4940     3.0200 hx         1 8KK       0.088200
     54 H27         10.3810    -4.8320     2.2280 hn         1 8KK       0.220133
     55 H28         10.2520    -3.3630     2.9340 hn         1 8KK       0.220133
     56 H30         -0.6040     0.8660    -1.8700 hn         1 8KK       0.160500
     57 H31         -4.9070    -1.7280    -6.9950 ha         1 8KK       0.097500
     58 H32         -4.1190    -2.0550    -4.6810 ha         1 8KK       0.108500
     59 H033        10.3050    -3.4790     1.3080 hn         1 8KK       0.220133
@<TRIPOS>BOND
     1     1     9 1   
     2     1    24 1   
     3     1    29 1   
     4     1    30 1   
     5     2    24 1   
     6     2    25 1   
     7     2    28 2   
     8     3     4 1   
     9     3    25 1   
    10     3    31 1   
    11     3    32 1   
    12     4     5 ar  
    13     4    27 ar  
    14     5     6 ar  
    15     5    33 1   
    16     6     7 ar  
    17     6    34 1   
    18     7    26 ar  
    19     7    35 1   
    20     8     9 1   
    21     9    10 1   
    22     9    23 1   
    23    10    11 1   
    24    10    36 1   
    25    11    12 1   
    26    11    16 1   
    27    11    37 1   
    28    12    13 1   
    29    12    38 1   
    30    12    39 1   
    31    13    14 1   
    32    13    15 1   
    33    13    40 1   
    34    14    41 1   
    35    14    42 1   
    36    14    43 1   
    37    15    44 1   
    38    15    45 1   
    39    15    46 1   
    40    16    17 1   
    41    16    22 2   
    42    17    18 1   
    43    17    47 1   
    44    18    19 1   
    45    18    48 1   
    46    18    49 1   
    47    19    20 1   
    48    19    50 1   
    49    19    51 1   
    50    20    21 1   
    51    20    52 1   
    52    20    53 1   
    53    21    54 1   
    54    21    55 1   
    55    21    59 1   
    56    24    56 1   
    57    26    27 ar  
    58    26    57 1   
    59    27    58 1   
@<TRIPOS>SUBSTRUCTURE
     1 8KK         1 TEMP              0 ****  ****    0 ROOT
