@<TRIPOS>MOLECULE
molecule
   41    43     1     0     0
SMALL
bcc


@<TRIPOS>ATOM
      1 CAH          0.0000     0.0000     0.0000 cx         1 8KM      -0.130900
      2 CAI          1.5300     0.0000     0.0000 cx         1 8KM      -0.130900
      3 CAG          0.7640     0.0000     1.3250 cx         1 8KM      -0.107400
      4 CAA          0.7650    -1.2750     2.1280 ca         1 8KM      -0.001300
      5 CAB          1.2870    -2.4290     1.5890 ca         1 8KM      -0.095000
      6 CAF          0.2390    -1.2860     3.4240 ca         1 8KM       0.005000
      7 CAJ         -0.2990    -0.0860     3.9900 cg         1 8KM       0.242800
      8 NAK         -0.7420     0.8640     4.4270 n1         1 8KM      -0.358800
      9 CAE          0.2420    -2.4710     4.1670 ca         1 8KM      -0.091000
     10 CAD          0.7600    -3.6230     3.6190 ca         1 8KM      -0.089000
     11 CAC          1.2870    -3.6070     2.3310 ca         1 8KM       0.060600
     12 NAL          1.8160    -4.7730     1.7820 nu         1 8KM      -0.304500
     13 SAM          0.8030    -5.9700     1.2500 s6         1 8KM       1.455900
     14 OAW          1.6790    -6.9820     0.7740 o          1 8KM      -0.636800
     15 OAV         -0.0640    -6.2100     2.3490 o          1 8KM      -0.636800
     16 CAN         -0.1060    -5.2150    -0.1260 c3         1 8KM      -0.474300
     17 CAO         -1.1550    -6.1790    -0.6220 ca         1 8KM      -0.166300
     18 CAT         -0.8440    -7.0830    -1.6200 ca         1 8KM      -0.100500
     19 CAS         -1.8050    -7.9660    -2.0770 ca         1 8KM      -0.125500
     20 CAR         -3.0770    -7.9440    -1.5340 ca         1 8KM      -0.036300
     21 CAU         -4.1240    -8.9070    -2.0310 c3         1 8KM      -0.056800
     22 CAQ         -3.3870    -7.0400    -0.5360 ca         1 8KM      -0.125500
     23 CAP         -2.4250    -6.1600    -0.0760 ca         1 8KM      -0.100500
     24 H1          -0.4670    -0.9390    -0.2710 hc         1 8KM       0.079950
     25 H2          -0.4670     0.9390    -0.2700 hc         1 8KM       0.079950
     26 H3           1.9970    -0.9390    -0.2710 hc         1 8KM       0.079950
     27 H4           1.9970     0.9390    -0.2700 hc         1 8KM       0.079950
     28 H5           0.7650     1.0030     1.7340 hc         1 8KM       0.100700
     29 H6           1.6970    -2.4210     0.5870 ha         1 8KM       0.158000
     30 H7          -0.1650    -2.4820     5.1710 ha         1 8KM       0.153000
     31 H8           0.7630    -4.5420     4.1930 ha         1 8KM       0.167000
     32 H9           1.3350    -5.2380     1.0380 hn         1 8KM      -0.111200
     33 H10         -0.9970    -5.7960    -0.3320 h1         1 8KM       0.206200
     34 H11          0.5230    -5.1960    -1.0070 h1         1 8KM       0.206200
     35 H12          0.1520    -7.1000    -2.0460 ha         1 8KM       0.168500
     36 H13         -1.5620    -8.6750    -2.8590 ha         1 8KM       0.150500
     37 H14         -5.1070    -8.4710    -1.8980 hc         1 8KM       0.054700
     38 H15         -4.0600    -9.8310    -1.4700 hc         1 8KM       0.054700
     39 H16         -3.9590    -9.1100    -3.0820 hc         1 8KM       0.054700
     40 H17         -4.3830    -7.0230    -0.1110 ha         1 8KM       0.150500
     41 H18         -2.6670    -5.4540     0.7080 ha         1 8KM       0.168500
@<TRIPOS>BOND
     1    14    13 2   
     2    15    13 2   
     3    13    16 1   
     4    13    12 1   
     5    16    17 1   
     6    18    17 ar  
     7    18    19 ar  
     8    17    23 ar  
     9    19    20 ar  
    10    12    11 1   
    11    23    22 ar  
    12     1     2 1   
    13     1     3 1   
    14     5    11 ar  
    15     5     4 ar  
    16    11    10 ar  
    17     2     3 1   
    18    20    22 ar  
    19    20    21 1   
    20     4     3 1   
    21     4     6 ar  
    22    10     9 ar  
    23     6     9 ar  
    24     6     7 1   
    25     7     8 3   
    26     1    24 1   
    27     1    25 1   
    28     2    26 1   
    29     2    27 1   
    30     3    28 1   
    31     5    29 1   
    32     9    30 1   
    33    10    31 1   
    34    12    32 1   
    35    16    33 1   
    36    16    34 1   
    37    18    35 1   
    38    19    36 1   
    39    21    37 1   
    40    21    38 1   
    41    21    39 1   
    42    22    40 1   
    43    23    41 1   
@<TRIPOS>SUBSTRUCTURE
     1 8KM         1 TEMP              0 ****  ****    0 ROOT
