@<TRIPOS>MOLECULE
8KN
   64    65     1     0     0
SMALL
bcc


@<TRIPOS>ATOM
      1 C10          0.0000     0.0000     0.0000 c3         1 8KN      -0.290000
      2 C11          4.0720    -0.1220    -2.8580 c2         1 8KN       0.389000
      3 C12          8.7370     1.6560     3.1140 c3         1 8KN      -0.510000
      4 C13          8.5690     0.1030     4.9840 c2         1 8KN       0.309000
      5 C14          8.3960    -1.5480     6.7000 c3         1 8KN       0.142000
      6 C15          8.3540    -1.6420     8.2030 ca         1 8KN      -0.095000
      7 C16          9.5280    -1.7740     8.9210 ca         1 8KN      -0.076500
      8 C19          7.1020    -1.6750    10.2440 ca         1 8KN      -0.114000
      9 C20          7.1410    -1.5890     8.8640 ca         1 8KN      -0.076500
     10 O01          6.1630     0.9070     2.7500 o          1 8KN      -0.650000
     11 N01          7.1290     2.3790     0.8570 n7         1 8KN      -0.464000
     12 C01          5.7820     2.5880     0.3080 c3         1 8KN      -0.026000
     13 C02          5.8340     3.6690    -0.7720 c3         1 8KN      -0.228000
     14 C03          6.2200     5.0060    -0.1380 c3         1 8KN      -0.543000
     15 C04          6.4190     6.0530    -1.2360 c3         1 8KN       0.019000
     16 C05          5.1070     5.4630     0.8070 DU         1 8KN      -0.168000
     17 C06          5.2810     1.3000    -0.2920 c2         1 8KN       0.208000
     18 N02          4.0580     1.2520    -0.8590 ns         1 8KN      -0.022000
     19 C07          3.5700     0.0010    -1.4430 c3         1 8KN      -0.115000
     20 O04          5.9760     0.3060    -0.2660 o          1 8KN      -0.359000
     21 O05          6.5060     3.3490     3.2860 o          1 8KN      -0.650000
     22 N04          8.6810     1.3750     4.5510 ns         1 8KN       0.103000
     23 O06          8.5170    -0.1560     6.3050 os         1 8KN      -0.270000
     24 C17          9.4890    -1.8610    10.3000 ca         1 8KN      -0.114000
     25 C18          8.2750    -1.8140    10.9610 ca         1 8KN      -0.108000
     26 O07          8.5140    -0.8090     4.1850 o          1 8KN      -0.463000
     27 C08          2.0400     0.0010    -1.4430 c3         1 8KN      -0.089000
     28 C09          1.5300     0.0000     0.0000 c3         1 8KN      -0.115000
     29 N03         -0.4890     0.0000     1.3850 nz         1 8KN       0.812000
     30 H1          -0.3710    -0.9010    -0.4740 hx         1 8KN       0.107000
     31 H2          -0.4520     0.8200    -0.5450 hx         1 8KN       0.107000
     32 H3           9.1260     0.7870     2.5970 h1         1 8KN       0.070500
     33 H4           9.4870     2.3980     2.8700 h1         1 8KN       0.070500
     34 H5           9.2210    -2.1650     6.3660 h1         1 8KN       0.049500
     35 H6           7.4690    -1.9540     6.3140 h1         1 8KN       0.049500
     36 H7          10.4720    -1.8190     8.3910 ha         1 8KN       0.109000
     37 H8           6.1510    -1.6340    10.7610 ha         1 8KN       0.095500
     38 H9           6.2290    -1.5380     8.2810 ha         1 8KN       0.109000
     39 H10          7.7970     1.8750     0.3080 hn         1 8KN       0.092000
     40 H11          5.1090     2.9060     1.0950 h1         1 8KN       0.080000
     41 H12          6.6930     3.3850    -1.3680 hc         1 8KN       0.086500
     42 H13          5.1540     3.5280    -1.6040 hc         1 8KN       0.086500
     43 H14          5.5080     4.4050     0.4150 DU         1 8KN       0.472000
     44 H15          6.4440     5.5540    -2.1980 hc         1 8KN       0.016333
     45 H16          7.2740     6.6910    -1.0490 hc         1 8KN       0.016333
     46 H17          5.5190     6.6530    -1.1760 hc         1 8KN       0.016333
     47 H18          4.2940     4.8310     0.4710 ha         1 8KN       0.059333
     48 H19          4.8190     6.5010     0.6890 ha         1 8KN       0.059333
     49 H20          5.3100     5.2130     1.8410 ha         1 8KN       0.059333
     50 H21          3.5970     2.1110    -1.0840 hn         1 8KN       0.064000
     51 H22          3.8970    -0.8580    -0.8690 h1         1 8KN       0.104000
     52 H25          8.4110     2.1280     5.1530 hn         1 8KN       0.080000
     53 H26         10.4110    -1.9560    10.8600 ha         1 8KN       0.095500
     54 H27          8.2440    -1.8820    12.0420 ha         1 8KN       0.092000
     55 H28          1.7290     0.9460    -1.8700 hc         1 8KN       0.066000
     56 H29          1.6170    -0.7830    -2.0590 hc         1 8KN       0.066000
     57 H30          1.8890    -0.9360     0.4100 hc         1 8KN       0.086000
     58 H31          1.8360     0.8840     0.5470 hc         1 8KN       0.086000
     59 H32         -0.9040     0.8900     1.5800 hn         1 8KN       0.021000
     60 H33          0.3610    -0.2020     1.8720 hn         1 8KN       0.021000
     61 O03          3.7480    -1.1980    -3.5950 o          1 8KN      -0.615500
     62 H033        -1.0820    -0.7630     1.6480 hn         1 8KN       0.021000
     63 O02          4.7670     0.7460    -3.3310 o          1 8KN      -0.615500
     64 P01          7.0640     2.0550     2.5080 p5         1 8KN       1.180000
@<TRIPOS>BOND
     1     1    28 1   
     2     1    29 1   
     3     1    30 1   
     4     1    31 1   
     5     2    19 1   
     6     2    61 1   
     7     2    63 1   
     8     3    22 1   
     9     3    32 1   
    10     3    33 1   
    11     3    64 1   
    12     4    22 1   
    13     4    23 1   
    14     4    26 1   
    15     5     6 1   
    16     5    23 1   
    17     5    34 1   
    18     5    35 1   
    19     6     7 1   
    20     6     9 1   
    21     7    24 1   
    22     7    36 1   
    23     8     9 1   
    24     8    25 1   
    25     8    37 1   
    26     9    38 1   
    27    10    64 1   
    28    11    12 1   
    29    11    39 1   
    30    11    64 1   
    31    12    13 1   
    32    12    17 1   
    33    12    40 1   
    34    13    14 1   
    35    13    41 1   
    36    13    42 1   
    37    14    15 1   
    38    14    16 1   
    39    14    43 1   
    40    15    44 1   
    41    15    45 1   
    42    15    46 1   
    43    16    43 1   
    44    16    47 1   
    45    16    48 1   
    46    16    49 1   
    47    17    18 1   
    48    17    20 1   
    49    18    19 1   
    50    18    50 1   
    51    19    27 1   
    52    19    51 1   
    53    21    64 1   
    54    22    52 1   
    55    24    25 1   
    56    24    53 1   
    57    25    54 1   
    58    27    28 1   
    59    27    55 1   
    60    27    56 1   
    61    28    57 1   
    62    28    58 1   
    63    29    59 1   
    64    29    60 1   
    65    29    62 1   
@<TRIPOS>SUBSTRUCTURE
     1 8KN         1 TEMP              0 ****  ****    0 ROOT
