@<TRIPOS>MOLECULE
molecule
   64    64     1     0     0
SMALL
bcc


@<TRIPOS>ATOM
      1 C10          0.0000     0.0000     0.0000 c3         1 8KN       0.081800
      2 C11          4.0720    -0.1220    -2.8580 c          1 8KN       0.881600
      3 C12          8.7370     1.6560     3.1140 c3         1 8KN      -0.073200
      4 C13          8.5690     0.1030     4.9840 c          1 8KN       0.740100
      5 C14          8.3960    -1.5480     6.7000 c3         1 8KN       0.216700
      6 C15          8.3540    -1.6420     8.2030 ca         1 8KN      -0.088300
      7 C16          9.5280    -1.7740     8.9210 ca         1 8KN      -0.104000
      8 C19          7.1020    -1.6750    10.2440 ca         1 8KN      -0.139000
      9 C20          7.1410    -1.5890     8.8640 ca         1 8KN      -0.104000
     10 O01          6.1630     0.9070     2.7500 o          1 8KN      -0.822000
     11 N01          7.1290     2.3790     0.8570 n7         1 8KN      -0.875300
     12 C01          5.7820     2.5880     0.3080 c3         1 8KN       0.150500
     13 C02          5.8340     3.6690    -0.7720 c3         1 8KN      -0.165400
     14 C03          6.2200     5.0060    -0.1380 c3         1 8KN      -0.500700
     15 C04          6.4190     6.0530    -1.2360 c3         1 8KN      -0.046600
     16 C05          5.1070     5.4630     0.8070 c3         1 8KN      -0.046600
     17 C06          5.2810     1.3000    -0.2920 c          1 8KN       0.644100
     18 N02          4.0580     1.2520    -0.8590 ns         1 8KN      -0.581900
     19 C07          3.5700     0.0010    -1.4430 c3         1 8KN       0.010700
     20 O04          5.9760     0.3060    -0.2660 o          1 8KN      -0.569100
     21 O05          6.5060     3.3490     3.2860 o          1 8KN      -0.822000
     22 N04          8.6810     1.3750     4.5510 ns         1 8KN      -0.516900
     23 O06          8.5170    -0.1560     6.3050 os         1 8KN      -0.443900
     24 C17          9.4890    -1.8610    10.3000 ca         1 8KN      -0.139000
     25 C18          8.2750    -1.8140    10.9610 ca         1 8KN      -0.131000
     26 O07          8.5140    -0.8090     4.1850 o          1 8KN      -0.601000
     27 C08          2.0400     0.0010    -1.4430 c3         1 8KN      -0.065400
     28 C09          1.5300     0.0000     0.0000 c3         1 8KN      -0.107400
     29 N03         -0.4890     0.0000     1.3850 nz         1 8KN      -0.830600
     30 H1          -0.3710    -0.9010    -0.4740 hx         1 8KN       0.092200
     31 H2          -0.4520     0.8200    -0.5450 hx         1 8KN       0.092200
     32 H3           9.1260     0.7870     2.5970 h1         1 8KN       0.059700
     33 H4           9.4870     2.3980     2.8700 h1         1 8KN       0.059700
     34 H5           9.2210    -2.1650     6.3660 h1         1 8KN       0.052200
     35 H6           7.4690    -1.9540     6.3140 h1         1 8KN       0.052200
     36 H7          10.4720    -1.8190     8.3910 ha         1 8KN       0.137000
     37 H8           6.1510    -1.6340    10.7610 ha         1 8KN       0.122000
     38 H9           6.2290    -1.5380     8.2810 ha         1 8KN       0.137000
     39 H10          7.7970     1.8750     0.3080 hn         1 8KN       0.404800
     40 H11          5.1090     2.9060     1.0950 h1         1 8KN       0.065700
     41 H12          6.6930     3.3850    -1.3680 hc         1 8KN       0.067200
     42 H13          5.1540     3.5280    -1.6040 hc         1 8KN       0.067200
     43 H14          5.5080     4.4050     0.4150 hc         1 8KN       0.446700
     44 H15          6.4440     5.5540    -2.1980 hc         1 8KN       0.028367
     45 H16          7.2740     6.6910    -1.0490 hc         1 8KN       0.028367
     46 H17          5.5190     6.6530    -1.1760 hc         1 8KN       0.028367
     47 H18          4.2940     4.8310     0.4710 hc         1 8KN       0.028367
     48 H19          4.8190     6.5010     0.6890 hc         1 8KN       0.028367
     49 H20          5.3100     5.2130     1.8410 hc         1 8KN       0.028367
     50 H21          3.5970     2.1110    -1.0840 hn         1 8KN       0.286500
     51 H22          3.8970    -0.8580    -0.8690 h1         1 8KN       0.087700
     52 H25          8.4110     2.1280     5.1530 hn         1 8KN       0.324500
     53 H26         10.4110    -1.9560    10.8600 ha         1 8KN       0.122000
     54 H27          8.2440    -1.8820    12.0420 ha         1 8KN       0.118000
     55 H28          1.7290     0.9460    -1.8700 hc         1 8KN       0.055200
     56 H29          1.6170    -0.7830    -2.0590 hc         1 8KN       0.055200
     57 H30          1.8890    -0.9360     0.4100 hc         1 8KN       0.078200
     58 H31          1.8360     0.8840     0.5470 hc         1 8KN       0.078200
     59 H32         -0.9040     0.8900     1.5800 hn         1 8KN       0.452133
     60 H33          0.3610    -0.2020     1.8720 hn         1 8KN       0.452133
     61 O03          3.7480    -1.1980    -3.5950 o          1 8KN      -0.829800
     62 H033        -1.0820    -0.7630     1.6480 hn         1 8KN       0.452133
     63 O02          4.7670     0.7460    -3.3310 o          1 8KN      -0.829800
     64 P01          7.0640     2.0550     2.5080 p5         1 8KN       1.120500
@<TRIPOS>BOND
     1    24     7 ar
     2    24    25 ar
     3     7     6 ar
     4    25     8 ar
     5     6     5 1
     6     6     9 ar
     7     5    23 1
     8     8     9 ar
     9    23     4 1
    10    26     4 2
    11     4    22 1
    12    22     3 1
    13     3    64 1
    14    10    64 1
    15    21    64 1
    16    63     2 1
    17    64    11 1
    18    61     2 1
    19     2    19 1
    20    11    12 1
    21    19    18 1
    22    19    27 1
    23    18    17 1
    24    17    20 2
    25    17    12 1
    26    12    13 1
    27    27    28 1
    28    28     1 1
    29    13    14 1
    30     1    29 1
    31    15    14 1
    32    14    16 1
    33     1    30 1
    34     1    31 1
    35     3    32 1
    36     3    33 1
    37     5    34 1
    38     5    35 1
    39     7    36 1
    40     8    37 1
    41     9    38 1
    42    11    39 1
    43    12    40 1
    44    13    41 1
    45    13    42 1
    46    14    43 1
    47    15    44 1
    48    15    45 1
    49    15    46 1
    50    16    47 1
    51    16    48 1
    52    16    49 1
    53    18    50 1
    54    19    51 1
    55    22    52 1
    56    24    53 1
    57    25    54 1
    58    27    55 1
    59    27    56 1
    60    28    57 1
    61    28    58 1
    62    29    59 1
    63    29    60 1
    64    62    29 1
@<TRIPOS>SUBSTRUCTURE
     1 8KN         1 TEMP              0 ****  ****    0 ROOT
