@<TRIPOS>MOLECULE
molecule
   49    49     1     0     0
SMALL
bcc


@<TRIPOS>ATOM
      1 N            0.0000     0.0000     0.0000 nz         1 8KO      -0.802600
      2 CA           1.4700     0.0000     0.0000 c3         1 8KO       0.123500
      3 CB           1.9800    -1.2490    -0.7200 c3         1 8KO      -0.049100
      4 CG           1.5820    -1.1890    -2.1730 ca         1 8KO      -0.152300
      5 CD2          0.3740    -1.7230    -2.5810 ca         1 8KO      -0.132500
      6 CE2          0.0090    -1.6680    -3.9130 ca         1 8KO      -0.106500
      7 CZ           0.8520    -1.0780    -4.8370 ca         1 8KO      -0.098000
      8 CE1          2.0600    -0.5450    -4.4290 ca         1 8KO      -0.106500
      9 CD1          2.4220    -0.5960    -3.0960 ca         1 8KO      -0.132500
     10 C            1.9780     0.0000     1.4430 c3         1 8KO       0.049100
     11 O            1.6010    -1.2200     2.0820 oh         1 8KO      -0.582800
     12 C10          1.3770     1.1650     2.1880 c          1 8KO       0.598100
     13 O2           0.6200     0.9660     3.1130 o          1 8KO      -0.549100
     14 N2           1.6820     2.4270     1.8250 ns         1 8KO      -0.556900
     15 C11          1.0980     3.5580     2.5490 c3         1 8KO       0.044700
     16 C12          2.0080     4.7790     2.4080 c3         1 8KO      -0.089400
     17 C13          3.3440     4.5020     3.1010 c3         1 8KO      -0.079700
     18 C14          4.2990     5.6720     2.8520 c3         1 8KO      -0.092100
     19 C15          3.1150     4.3400     4.6040 c3         1 8KO      -0.092100
     20 C16         -0.2600     3.8740     1.9750 c          1 8KO       0.675100
     21 O3          -0.6950     3.2180     1.0520 o          1 8KO      -0.636100
     22 N3          -0.9890     4.8850     2.4880 ns         1 8KO      -0.449400
     23 O4          -2.2640     5.1820     1.9480 oh         1 8KO      -0.356100
     24 H1          -0.3340     0.5840     0.7420 hn         1 8KO       0.466467
     25 H2          -0.3340    -0.9340     0.1350 hn         1 8KO       0.466467
     26 H4           1.8310     0.8850    -0.5100 hx         1 8KO       0.114700
     27 H5           3.0600    -1.2940    -0.6430 hc         1 8KO       0.092700
     28 H6           1.5480    -2.1310    -0.2640 hc         1 8KO       0.092700
     29 H7          -0.2860    -2.1850    -1.8570 ha         1 8KO       0.127000
     30 H8          -0.9380    -2.0860    -4.2330 ha         1 8KO       0.152000
     31 H9           0.5670    -1.0370    -5.8810 ha         1 8KO       0.155000
     32 H10          2.7190    -0.0820    -5.1520 ha         1 8KO       0.152000
     33 H11          3.3690    -0.1780    -2.7760 ha         1 8KO       0.127000
     34 H12          3.0580     0.0890     1.4450 h1         1 8KO       0.093700
     35 H13          2.2720    -1.4760     2.6930 ho         1 8KO       0.449000
     36 H14          2.2860     2.5910     1.0450 hn         1 8KO       0.324500
     37 H15          0.9960     3.3030     3.5970 h1         1 8KO       0.112700
     38 H16          2.1810     4.9800     1.3570 hc         1 8KO       0.063700
     39 H17          4.4090     5.8270     1.7860 hc         1 8KO       0.043200
     40 H18          5.2650     5.4480     3.2860 hc         1 8KO       0.043200
     41 H19          3.8970     6.5690     3.3080 hc         1 8KO       0.043200
     42 H20          2.3230     5.0070     4.9230 hc         1 8KO       0.043200
     43 H21          2.8320     3.3160     4.8180 hc         1 8KO       0.043200
     44 H22          4.0270     4.5810     5.1370 hc         1 8KO       0.043200
     45 H23         -0.6480     5.3980     3.2760 hn         1 8KO       0.333500
     46 H24         -2.6680     5.8670     2.4550 ho         1 8KO       0.415000
     47 H3           1.5340     5.6380     2.8670 hc         1 8KO       0.063700
     48 H25          3.7760     3.5920     2.7010 hc         1 8KO       0.043700
     49 HN3         -0.3340     0.3550    -0.8740 hn         1 8KO       0.466467
@<TRIPOS>BOND
     1    18    17 1   
     2    17    19 1   
     3    17    16 1   
     4    16    15 1   
     5    11    10 1   
     6    13    12 2   
     7    12    14 1   
     8    12    10 1   
     9    15    14 1   
    10    15    20 1   
    11    10     2 1   
    12    20    22 1   
    13    20    21 2   
    14     1     2 1   
    15    22    23 1   
    16     2     3 1   
    17     3     4 1   
    18     4     9 ar  
    19     4     5 ar  
    20     9     8 ar  
    21     5     6 ar  
    22     8     7 ar  
    23     6     7 ar  
    24     1    24 1   
    25     1    25 1   
    26     2    26 1   
    27     3    27 1   
    28     3    28 1   
    29     5    29 1   
    30     6    30 1   
    31     7    31 1   
    32     8    32 1   
    33     9    33 1   
    34    10    34 1   
    35    11    35 1   
    36    14    36 1   
    37    15    37 1   
    38    16    38 1   
    39    18    39 1   
    40    18    40 1   
    41    18    41 1   
    42    19    42 1   
    43    19    43 1   
    44    19    44 1   
    45    22    45 1   
    46    23    46 1   
    47    16    47 1   
    48    17    48 1   
    49    49     1 1   
@<TRIPOS>SUBSTRUCTURE
     1 8KO         1 TEMP              0 ****  ****    0 ROOT
