@<TRIPOS>MOLECULE
molecule
   43    44     1     0     0
SMALL
bcc


@<TRIPOS>ATOM
      1 CAT          0.0000     0.0000     0.0000 c3         1 8KP      -0.088100
      2 CAS          1.5300     0.0000     0.0000 c3         1 8KP      -0.046100
      3 CAO          2.0310     0.0000     1.4210 ca         1 8KP      -0.019300
      4 CAK          2.3580     1.1860     2.0370 ca         1 8KP      -0.168000
      5 CAN          2.1600    -1.2060     2.1170 ca         1 8KP      -0.043000
      6 CAQ          1.8160    -2.4420     1.4820 cg         1 8KP       0.248800
      7 NAR          1.5480    -3.4150     0.9610 n1         1 8KP      -0.370800
      8 CAM          2.6270    -1.2020     3.4350 ca         1 8KP      -0.017300
      9 CAP          2.7670    -2.4990     4.1900 c3         1 8KP      -0.055800
     10 CAL          2.9570    -0.0110     4.0430 ca         1 8KP      -0.177000
     11 CAJ          2.8220     1.1870     3.3490 ca         1 8KP       0.161600
     12 NAI          3.1570     2.3870     3.9670 nu         1 8KP      -0.766500
     13 SAH          4.5620     2.5080     4.8360 s6         1 8KP       1.324900
     14 OAU          4.5560     3.8410     5.3300 o          1 8KP      -0.619800
     15 OAV          4.5220     1.3990     5.7230 o          1 8KP      -0.619800
     16 CAG          5.8770     2.2920     3.6060 c3         1 8KP      -0.163300
     17 CAE          7.2200     2.3820     4.2830 ca         1 8KP      -0.101300
     18 CAD          7.8490     3.6060     4.4080 ca         1 8KP      -0.104000
     19 CAC          9.0790     3.6890     5.0350 ca         1 8KP      -0.125000
     20 CAB          9.6780     2.5500     5.5360 ca         1 8KP      -0.069300
     21 CAW         11.0190     2.6400     6.2200 c3         1 8KP      -0.050800
     22 CAA          9.0480     1.3250     5.4120 ca         1 8KP      -0.125000
     23 CAF          7.8190     1.2420     4.7850 ca         1 8KP      -0.104000
     24 H1          -0.3610    -0.4820     0.9010 hc         1 8KP       0.041033
     25 H2          -0.3610    -0.5390    -0.8680 hc         1 8KP       0.041033
     26 H3          -0.3610     1.0210    -0.0330 hc         1 8KP       0.041033
     27 H4           1.8910    -0.8840    -0.5110 hc         1 8KP       0.055700
     28 H5           1.8910     0.8850    -0.5110 hc         1 8KP       0.055700
     29 H6           2.2560     2.1220     1.5000 ha         1 8KP       0.140000
     30 H7           3.0260    -2.2910     5.2210 hc         1 8KP       0.055033
     31 H8           3.5470    -3.0980     3.7360 hc         1 8KP       0.055033
     32 H9           1.8300    -3.0410     4.1550 hc         1 8KP       0.055033
     33 H10          3.3190    -0.0070     5.0640 ha         1 8KP       0.193000
     34 H11          2.5760     3.1930     3.8430 hn         1 8KP       0.467800
     35 H12          5.7990     3.0680     2.8530 h1         1 8KP       0.105200
     36 H13          5.7750     1.3210     3.1350 h1         1 8KP       0.105200
     37 H14          7.3770     4.5000     4.0200 ha         1 8KP       0.138000
     38 H15          9.5720     4.6490     5.1340 ha         1 8KP       0.136500
     39 H16         11.5960     1.7500     6.0030 hc         1 8KP       0.046367
     40 H17         11.5500     3.5120     5.8580 hc         1 8KP       0.046367
     41 H18         10.8730     2.7250     7.2900 hc         1 8KP       0.046367
     42 H19          9.5190     0.4320     5.8050 ha         1 8KP       0.136500
     43 H20          7.3220     0.2830     4.6920 ha         1 8KP       0.138000
@<TRIPOS>BOND
     1     7     6 3
     2     9     8 1
     3     6     5 1
     4     8     5 ar
     5     8    10 ar
     6     5     3 ar
     7    21    20 1
     8    10    11 ar
     9    19    20 ar
    10    19    18 ar
    11     3     2 1
    12     3     4 ar
    13     2     1 1
    14    20    22 ar
    15    18    17 ar
    16    11     4 ar
    17    11    12 1
    18    22    23 ar
    19    12    13 1
    20    17    23 ar
    21    17    16 1
    22    16    13 1
    23    13    14 2
    24    13    15 2
    25     1    24 1
    26     1    25 1
    27     1    26 1
    28     2    27 1
    29     2    28 1
    30     4    29 1
    31     9    30 1
    32     9    31 1
    33     9    32 1
    34    10    33 1
    35    12    34 1
    36    16    35 1
    37    16    36 1
    38    18    37 1
    39    19    38 1
    40    21    39 1
    41    21    40 1
    42    21    41 1
    43    22    42 1
    44    23    43 1
@<TRIPOS>SUBSTRUCTURE
     1 8KP         1 TEMP              0 ****  ****    0 ROOT
