@<TRIPOS>MOLECULE
molecule
   41    41     1     0     0
SMALL
bcc


@<TRIPOS>ATOM
      1 O1           0.0000     0.0000     0.0000 o          1 8KR      -0.655100
      2 C1           1.2160     0.0000     0.0000 c          1 8KR       0.786100
      3 N            1.8900     0.0000     1.1670 ns         1 8KR      -0.480100
      4 CA           1.1950     0.1120     2.3760 ca         1 8KR       0.074600
      5 C           -0.0690     0.6860     2.4020 ca         1 8KR      -0.138000
      6 C4          -0.7530     0.7940     3.5970 ca         1 8KR      -0.114000
      7 CD1         -0.1790     0.3320     4.7680 ca         1 8KR      -0.148000
      8 CG1          1.0790    -0.2400     4.7450 ca         1 8KR      -0.109000
      9 CB           1.7660    -0.3560     3.5530 ca         1 8KR      -0.124300
     10 CG2          3.1350    -0.9860     3.5290 c3         1 8KR      -0.046800
     11 N2           1.8900    -0.0050    -1.1680 ns         1 8KR      -0.582900
     12 C9           1.1620     0.1000    -2.4330 c3         1 8KR       0.071700
     13 C10          0.7720    -1.2990    -2.9150 c3         1 8KR      -0.092400
     14 C11          2.0190    -2.1840    -2.9750 c3         1 8KR      -0.079700
     15 C12          1.6070    -3.6260    -3.2730 c3         1 8KR      -0.101100
     16 C13          2.9480    -1.6800    -4.0820 c3         1 8KR      -0.101100
     17 C14          2.0400     0.7590    -3.4660 c          1 8KR       0.669100
     18 O2           3.1580     1.1200    -3.1680 o          1 8KR      -0.587100
     19 N3           1.5820     0.9490    -4.7190 ns         1 8KR      -0.466400
     20 O3           2.4070     1.5680    -5.6890 oh         1 8KR      -0.357100
     21 H1           2.8900    -0.0350     1.1660 hn         1 8KR       0.323500
     22 H2          -0.5180     1.0490     1.4850 ha         1 8KR       0.177000
     23 H3          -1.7390     1.2420     3.6180 ha         1 8KR       0.132000
     24 H4          -0.7160     0.4190     5.7050 ha         1 8KR       0.128000
     25 H5           1.5250    -0.6030     5.6630 ha         1 8KR       0.130000
     26 H6           3.3870    -1.3400     4.5210 hc         1 8KR       0.041033
     27 H7           3.1360    -1.8200     2.8370 hc         1 8KR       0.041033
     28 H8           3.8650    -0.2520     3.2110 hc         1 8KR       0.041033
     29 H9           2.8900    -0.0320    -1.1670 hn         1 8KR       0.333500
     30 H10          0.2670     0.6940    -2.2880 h1         1 8KR       0.094700
     31 H11          0.0550    -1.7310    -2.2270 hc         1 8KR       0.058200
     32 H12          0.3290    -1.2310    -3.9020 hc         1 8KR       0.058200
     33 H13          2.5360    -2.1450    -2.0240 hc         1 8KR       0.055700
     34 H14          2.4850    -4.2600    -3.2730 hc         1 8KR       0.040867
     35 H15          1.1280    -3.6720    -4.2440 hc         1 8KR       0.040867
     36 H16          0.9140    -3.9680    -2.5130 hc         1 8KR       0.040867
     37 H17          3.5660    -2.4970    -4.4340 hc         1 8KR       0.040867
     38 H18          3.5790    -0.8910    -3.6920 hc         1 8KR       0.040867
     39 H19          2.3550    -1.2960    -4.9040 hc         1 8KR       0.040867
     40 H20          0.6430     0.6920    -4.9520 hn         1 8KR       0.327500
     41 H21          1.8960     2.1830    -6.1890 ho         1 8KR       0.397000
@<TRIPOS>BOND
     1    20    19 1   
     2    19    17 1   
     3    18    17 2   
     4    17    12 1   
     5     5     6 ar  
     6     5     4 ar  
     7     6     7 ar  
     8     1     2 2   
     9    12    11 1   
    10    12    13 1   
    11     2     3 1   
    12     2    11 1   
    13     3     4 1   
    14     4     9 ar  
    15     7     8 ar  
    16    13    14 1   
    17     9     8 ar  
    18     9    10 1   
    19    14    15 1   
    20    14    16 1   
    21     3    21 1   
    22     5    22 1   
    23     6    23 1   
    24     7    24 1   
    25     8    25 1   
    26    10    26 1   
    27    10    27 1   
    28    10    28 1   
    29    11    29 1   
    30    12    30 1   
    31    13    31 1   
    32    13    32 1   
    33    14    33 1   
    34    15    34 1   
    35    15    35 1   
    36    15    36 1   
    37    16    37 1   
    38    16    38 1   
    39    16    39 1   
    40    19    40 1   
    41    20    41 1   
@<TRIPOS>SUBSTRUCTURE
     1 8KR         1 TEMP              0 ****  ****    0 ROOT
