@<TRIPOS>MOLECULE
molecule
   53    57     1     0     0
SMALL
bcc


@<TRIPOS>ATOM
      1 C12          0.0000     0.0000     0.0000 cy         1 8KS      -0.123700
      2 C11          2.0550     2.4450     0.1250 ca         1 8KS      -0.107500
      3 C10          2.6120     3.5970    -0.3980 ca         1 8KS      -0.131750
      4 O15         -1.9380     1.0080    -1.1510 os         1 8KS      -0.343200
      5 C16         -2.4200     1.7350    -2.1920 ca         1 8KS       0.157100
      6 O01          1.4290    -2.3540     1.4200 o          1 8KS      -0.836300
      7 C02          1.4080    -1.3820     2.1370 c          1 8KS       0.900600
      8 O03          1.3380    -1.5310     3.4690 o          1 8KS      -0.836300
      9 C04          1.4600     0.0000     1.5350 cy         1 8KS      -0.157700
     10 C05          1.5380     0.0000     0.0000 cy         1 8KS      -0.031400
     11 C06          2.1400     1.2560    -0.5740 ca         1 8KS      -0.029300
     12 C07          2.7770     1.2200    -1.8010 ca         1 8KS      -0.107500
     13 C08          3.3300     2.3730    -2.3270 ca         1 8KS      -0.131750
     14 C09          3.2550     3.5590    -1.6210 ca         1 8KS      -0.145000
     15 C13         -0.6040     0.8890    -1.0570 c          1 8KS       0.633100
     16 O14          0.1120     1.4920    -1.8200 o          1 8KS      -0.522000
     17 C17         -2.7930     3.0360    -2.0090 ca         1 8KS      -0.136000
     18 C18         -3.2890     3.7940    -3.0670 ca         1 8KS      -0.127000
     19 C19         -3.4170     3.2630    -4.3130 ca         1 8KS      -0.135000
     20 C20         -3.0440     1.9270    -4.5440 ca         1 8KS      -0.016000
     21 C21         -3.1630     1.3450    -5.8170 ca         1 8KS      -0.123000
     22 C22         -2.7910     0.0490    -6.0030 ca         1 8KS      -0.138000
     23 C23         -2.2940    -0.7120    -4.9480 ca         1 8KS      -0.150000
     24 C24         -2.1650    -0.1820    -3.7010 ca         1 8KS      -0.094000
     25 C25         -2.5330     1.1530    -3.4720 ca         1 8KS      -0.028000
     26 C26          0.0760     0.6580     1.3880 cy         1 8KS      -0.031400
     27 C27         -0.9480     0.1370     2.3630 ca         1 8KS      -0.029300
     28 C28         -1.4320     0.9610     3.3610 ca         1 8KS      -0.107500
     29 C29         -2.3720     0.4830     4.2560 ca         1 8KS      -0.131750
     30 C30         -2.8260    -0.8190     4.1520 ca         1 8KS      -0.145000
     31 C31         -2.3420    -1.6420     3.1530 ca         1 8KS      -0.131750
     32 C32         -1.4060    -1.1620     2.2550 ca         1 8KS      -0.107500
     33 H1          -0.4180    -0.9990     0.0340 hc         1 8KS       0.119700
     34 H2           1.5520     2.4750     1.0840 ha         1 8KS       0.132250
     35 H3           2.5500     4.5280     0.1520 ha         1 8KS       0.111750
     36 H5           2.1900     0.6580     1.9910 hc         1 8KS       0.061700
     37 H6           1.9560    -0.9170    -0.3980 hc         1 8KS       0.080200
     38 H7           2.8390     0.2890    -2.3520 ha         1 8KS       0.132250
     39 H8           3.8310     2.3440    -3.2870 ha         1 8KS       0.111750
     40 H9           3.6900     4.4620    -2.0320 ha         1 8KS       0.107000
     41 H10         -3.0210     3.5410    -1.0780 ha         1 8KS       0.142000
     42 H11         -3.6050     4.8170    -2.9010 ha         1 8KS       0.124000
     43 H12         -3.8430     3.8960    -5.0810 ha         1 8KS       0.124000
     44 H13         -3.5660     1.8540    -6.6850 ha         1 8KS       0.125000
     45 H14         -2.8920    -0.4260    -6.9710 ha         1 8KS       0.118000
     46 H15         -2.0130    -1.7320    -5.1800 ha         1 8KS       0.127000
     47 H16         -2.2560    -1.0540    -3.0650 ha         1 8KS       0.152000
     48 H17          0.1310     1.7390     1.3360 hc         1 8KS       0.080200
     49 H18         -1.0760     1.9810     3.4430 ha         1 8KS       0.132250
     50 H19         -2.7520     1.1280     5.0390 ha         1 8KS       0.111750
     51 H20         -3.5610    -1.1940     4.8540 ha         1 8KS       0.107000
     52 H21         -2.6990    -2.6610     3.0700 ha         1 8KS       0.111750
     53 H22         -1.0260    -1.8070     1.4720 ha         1 8KS       0.132250
@<TRIPOS>BOND
     1    14    13 ar
     2    14     3 ar
     3    13    12 ar
     4     3     2 ar
     5     6     7 1
     6    12    11 ar
     7     8     7 1
     8     7     9 1
     9     2    11 ar
    10    11    10 1
    11     9    10 1
    12     9    26 1
    13    23    22 ar
    14    23    24 ar
    15    10     1 1
    16    22    21 ar
    17    24    25 ar
    18    21    20 ar
    19    16    15 2
    20    26     1 1
    21    26    27 1
    22     1    15 1
    23    25    20 ar
    24    25     5 ar
    25    15     4 1
    26    20    19 ar
    27    27    32 ar
    28    27    28 ar
    29    32    31 ar
    30    28    29 ar
    31     4     5 1
    32     5    17 ar
    33    19    18 ar
    34    31    30 ar
    35    29    30 ar
    36    17    18 ar
    37     1    33 1
    38     2    34 1
    39     3    35 1
    40     9    36 1
    41    10    37 1
    42    12    38 1
    43    13    39 1
    44    14    40 1
    45    17    41 1
    46    18    42 1
    47    19    43 1
    48    21    44 1
    49    22    45 1
    50    23    46 1
    51    24    47 1
    52    26    48 1
    53    28    49 1
    54    29    50 1
    55    30    51 1
    56    31    52 1
    57    32    53 1
@<TRIPOS>SUBSTRUCTURE
     1 8KS         1 TEMP              0 ****  ****    0 ROOT
