@<TRIPOS>MOLECULE
8KU
   62    66     1     0     0
SMALL
bcc


@<TRIPOS>ATOM
      1 C1           0.0000     0.0000     0.0000 c          1 8KU       0.548700
      2 C10          9.1520    -2.5710     6.7200 ca         1 8KU      -0.136000
      3 C11          9.1230    -1.4830     5.8660 ca         1 8KU      -0.042000
      4 C12          8.0010    -1.2320     5.1080 ca         1 8KU      -0.188300
      5 C13          7.6640    -0.1350     4.1170 c3         1 8KU       0.021900
      6 C14          0.0830     0.0010     2.3440 cc         1 8KU       0.234900
      7 C15         -0.6550     0.0080     3.6570 c3         1 8KU       0.011400
      8 C17         -1.8960     3.6570     4.0250 c3         1 8KU      -0.011300
      9 C18         -2.2340     6.4350     3.9990 ca         1 8KU       0.047900
     10 C19         -3.5300     6.0630     4.3290 ca         1 8KU      -0.126000
     11 C2           1.4680     0.0000     0.0000 cc         1 8KU       0.050900
     12 C20         -4.5100     7.0270     4.4650 ca         1 8KU      -0.084000
     13 C21         -4.2030     8.3600     4.2710 ca         1 8KU      -0.094000
     14 C22         -2.9130     8.7360     3.9410 ca         1 8KU      -0.085000
     15 C23         -1.9270     7.7770     3.8050 ca         1 8KU      -0.016600
     16 C24         -2.8790     0.8640     3.8760 c3         1 8KU       0.042000
     17 C25         -2.8720    -0.5830     4.4300 c3         1 8KU      -0.030400
     18 C26         -1.6330    -1.1840     3.7160 c3         1 8KU      -0.038400
     19 C3           2.1120     0.0000     1.2270 cd         1 8KU       0.007400
     20 C4           3.5920     0.0010     1.2930 c          1 8KU       0.599300
     21 C5           5.6720     0.0050     2.5620 c3         1 8KU       0.044000
     22 C6           6.1290    -0.2730     3.9950 c3         1 8KU       0.157100
     23 C7           6.8920    -2.0670     5.1830 ca         1 8KU       0.135100
     24 C8           6.9280    -3.1580     6.0460 ca         1 8KU      -0.125000
     25 C9           8.0520    -3.4040     6.8080 ca         1 8KU      -0.068000
     26 N1           4.2130    -0.1050     2.4840 ns         1 8KU      -0.176900
     27 N2           1.3830     0.0000     2.3580 nd         1 8KU      -0.481300
     28 N3          -1.4560     1.2350     3.7740 n          1 8KU      -0.181800
     29 N4          -0.6340     0.0060     1.1930 ns         1 8KU       0.036600
     30 O1          -0.6280    -0.0000    -1.0450 o          1 8KU      -0.669500
     31 O2           2.1690    -0.0010    -1.1610 oh         1 8KU      -0.415100
     32 O3           5.9050    -1.6500     4.3440 os         1 8KU      -0.298900
     33 O4           4.2460     0.0960     0.2730 o          1 8KU      -0.630100
     34 O5           0.2140     2.6860     3.6020 o          1 8KU      -0.589100
     35 S1          -0.9780     5.2090     3.8320 ss         1 8KU      -0.247000
     36 Cl1         -0.3080     8.2480     3.3910 cl         1 8KU       0.014600
     37 H1          10.0330    -2.7680     7.3190 ha         1 8KU       0.107000
     38 H2           9.9820    -0.8280     5.7930 ha         1 8KU       0.102000
     39 H3           8.1440    -0.3180     3.1620 hc         1 8KU       0.033200
     40 H4           7.9330     0.8370     4.5130 hc         1 8KU       0.033200
     41 H5           0.0460    -0.0530     4.4800 h1         1 8KU       0.067700
     42 H6          -2.7080     3.6260     3.3080 h1         1 8KU       0.053700
     43 H7          -2.2980     3.5980     5.0290 h1         1 8KU       0.053700
     44 H8          -3.7720     5.0180     4.4810 ha         1 8KU       0.108000
     45 H9          -5.5210     6.7370     4.7230 ha         1 8KU       0.104000
     46 H10         -4.9740     9.1130     4.3780 ha         1 8KU       0.107000
     47 H11         -2.6750     9.7820     3.7900 ha         1 8KU       0.117000
     48 H12         -3.3920     1.5260     4.5630 h1         1 8KU       0.020700
     49 H13         -3.3450     0.8890     2.8980 h1         1 8KU       0.020700
     50 H14         -2.7360    -0.5830     5.5050 hc         1 8KU       0.032200
     51 H15         -3.7750    -1.1090     4.1460 hc         1 8KU       0.032200
     52 H16         -1.8920    -1.5150     2.7170 hc         1 8KU       0.032200
     53 H17         -1.2120    -1.9940     4.2990 hc         1 8KU       0.032200
     54 H18          5.9750     1.0040     2.2730 h1         1 8KU       0.037700
     55 H19          6.1240    -0.7170     1.8920 h1         1 8KU       0.037700
     56 H20          5.6310     0.3840     4.6980 h1         1 8KU       0.031700
     57 H21          6.0700    -3.8150     6.1220 ha         1 8KU       0.110000
     58 H22          8.0730    -4.2570     7.4760 ha         1 8KU       0.103000
     59 H23          3.6790    -0.2710     3.3140 hn         1 8KU       0.194500
     60 H24         -1.6340     0.0070     1.2280 hn         1 8KU       0.181500
     61 H25          1.9510    -0.7710    -1.6600 ho         1 8KU       0.408000
     62 C16         -0.9700     2.4920     3.7850 c          1 8KU       0.620100
@<TRIPOS>BOND
     1     1    11 1   
     2     1    29 1   
     3     1    30 2   
     4     2     3 ar  
     5     2    25 ar  
     6     2    37 1   
     7     3     4 ar  
     8     3    38 1   
     9     4     5 1   
    10     4    23 ar  
    11     5    22 1   
    12     5    39 1   
    13     5    40 1   
    14     6     7 1   
    15     6    27 2   
    16     6    29 1   
    17     7    18 1   
    18     7    28 1   
    19     7    41 1   
    20     8    35 1   
    21     8    42 1   
    22     8    43 1   
    23     8    62 1   
    24     9    10 ar  
    25     9    15 ar  
    26     9    35 1   
    27    10    12 ar  
    28    10    44 1   
    29    11    19 2   
    30    11    31 1   
    31    12    13 ar  
    32    12    45 1   
    33    13    14 ar  
    34    13    46 1   
    35    14    15 ar  
    36    14    47 1   
    37    15    36 1   
    38    16    17 1   
    39    16    28 1   
    40    16    48 1   
    41    16    49 1   
    42    17    18 1   
    43    17    50 1   
    44    17    51 1   
    45    18    52 1   
    46    18    53 1   
    47    19    20 1   
    48    19    27 1   
    49    20    26 1   
    50    20    33 2   
    51    21    22 1   
    52    21    26 1   
    53    21    54 1   
    54    21    55 1   
    55    22    32 1   
    56    22    56 1   
    57    23    24 ar  
    58    23    32 1   
    59    24    25 ar  
    60    24    57 1   
    61    25    58 1   
    62    26    59 1   
    63    28    62 1   
    64    29    60 1   
    65    31    61 1   
    66    34    62 2   
@<TRIPOS>SUBSTRUCTURE
     1 8KU         1 TEMP              0 ****  ****    0 ROOT
