@<TRIPOS>MOLECULE
molecule
   34    35     1     0     0
SMALL
bcc


@<TRIPOS>ATOM
      1 CAA          0.0000     0.0000     0.0000 c3         1 8KW       0.128700
      2 OAB          1.4280     0.0000     0.0000 os         1 8KW      -0.327900
      3 CAC          2.0450     0.0000     1.2110 ca         1 8KW       0.154100
      4 CAD          3.4310     0.0010     1.2840 ca         1 8KW      -0.163000
      5 CAK          1.2900     0.0070     2.3740 ca         1 8KW      -0.251000
      6 CAL          1.9220     0.0060     3.6080 ca         1 8KW       0.143100
      7 OAQ          1.1860     0.0120     4.7500 oh         1 8KW      -0.524100
      8 CAM          3.3080     0.0010     3.6760 ca         1 8KW      -0.194000
      9 CAE          4.0590     0.0000     2.5160 ca         1 8KW      -0.034300
     10 CAF          5.5640     0.0000     2.5920 c3         1 8KW      -0.031100
     11 CAG          6.0740     1.4420     2.6180 c3         1 8KW      -0.022100
     12 CAH          7.5790     1.4410     2.6950 ca         1 8KW      -0.104300
     13 CAI          8.2080     1.5400     3.9210 ca         1 8KW      -0.102000
     14 CAJ          9.5890     1.5400     3.9920 ca         1 8KW      -0.149000
     15 CAP         10.3430     1.4410     2.8370 ca         1 8KW      -0.104000
     16 CAO          9.7180     1.3410     1.6090 ca         1 8KW      -0.191000
     17 CAN          8.3330     1.3360     1.5360 ca         1 8KW       0.122100
     18 OAR          7.7160     1.2330     0.3290 oh         1 8KW      -0.509100
     19 H1          -0.3610     0.8900     0.5010 h1         1 8KW       0.042033
     20 H2          -0.3610    -0.0110    -1.0210 h1         1 8KW       0.042033
     21 H3          -0.3610    -0.8790     0.5200 h1         1 8KW       0.042033
     22 H4           4.0200     0.0000     0.3760 ha         1 8KW       0.150000
     23 H5           0.2100    -0.0530     2.3190 ha         1 8KW       0.145000
     24 H6           1.0750     0.8990     5.0480 ho         1 8KW       0.420000
     25 H7           3.8030     0.0010     4.6400 ha         1 8KW       0.140000
     26 H8           5.8790    -0.5100     3.4940 hc         1 8KW       0.058700
     27 H9           5.9690    -0.5110     1.7280 hc         1 8KW       0.058700
     28 H10          5.6680     1.9540     3.4820 hc         1 8KW       0.054200
     29 H11          5.7580     1.9530     1.7160 hc         1 8KW       0.054200
     30 H12          7.6190     1.6180     4.8270 ha         1 8KW       0.135000
     31 H13         10.0810     1.6180     4.9540 ha         1 8KW       0.131000
     32 H14         11.4250     1.4440     2.8960 ha         1 8KW       0.131000
     33 H15         10.3090     1.2620     0.7050 ha         1 8KW       0.134000
     34 H16          8.1260     1.8190    -0.2850 ho         1 8KW       0.420000
@<TRIPOS>BOND
     1     7     6 1   
     2     6     5 ar  
     3     6     8 ar  
     4     5     3 ar  
     5     1     2 1   
     6     8     9 ar  
     7     3     2 1   
     8     3     4 ar  
     9     4     9 ar  
    10     9    10 1   
    11    11    10 1   
    12    11    12 1   
    13    18    17 1   
    14    12    17 ar  
    15    12    13 ar  
    16    17    16 ar  
    17    13    14 ar  
    18    16    15 ar  
    19    14    15 ar  
    20     1    19 1   
    21     1    20 1   
    22     1    21 1   
    23     4    22 1   
    24     5    23 1   
    25     7    24 1   
    26     8    25 1   
    27    10    26 1   
    28    10    27 1   
    29    11    28 1   
    30    11    29 1   
    31    13    30 1   
    32    14    31 1   
    33    15    32 1   
    34    16    33 1   
    35    18    34 1   
@<TRIPOS>SUBSTRUCTURE
     1 8KW         1 TEMP              0 ****  ****    0 ROOT
