@<TRIPOS>MOLECULE
8KX
   44    47     1     0     0
SMALL
bcc


@<TRIPOS>ATOM
      1 N            0.0000     0.0000     0.0000 nu         1 8KX      -0.387500
      2 C           -2.8260     3.8760     3.0230 c3         1 8KX       0.642200
      3 O            2.0580    -0.9980    -0.9290 o          1 8KX      -0.581300
      4 C01          6.0170     7.8810    -1.4480 ca         1 8KX      -0.087000
      5 C02          6.3010     7.5670    -0.1310 ca         1 8KX      -0.086000
      6 C03          5.6610     6.5070     0.4910 ca         1 8KX      -0.048000
      7 C04          4.7280     5.7550    -0.2130 ca         1 8KX      -0.140600
      8 C05          4.4380     6.0750    -1.5520 ca         1 8KX      -0.142600
      9 C06          5.0850     7.1450    -2.1590 ca         1 8KX      -0.050000
     10 C07          4.0370     4.6170     0.4340 c          1 8KX       0.645300
     11 C08          3.2910     3.6560    -0.4030 ca         1 8KX      -0.172600
     12 C09          2.9990     3.9810    -1.7450 ca         1 8KX      -0.097600
     13 C10          3.4430     5.2740    -2.2980 c          1 8KX       0.630300
     14 C11          2.8760     2.4370     0.1210 ca         1 8KX       0.060000
     15 C12          2.1770     1.5430    -0.6720 ca         1 8KX      -0.174500
     16 C13          1.8840     1.8530    -1.9900 ca         1 8KX       0.205100
     17 C14          2.2940     3.0750    -2.5360 ca         1 8KX       0.091100
     18 O02          4.0830     4.4760     1.6410 o          1 8KX      -0.538100
     19 O03          2.0060     3.3770    -3.8270 oh         1 8KX      -0.458100
     20 O04          1.1970     0.9670    -2.7560 oh         1 8KX      -0.486100
     21 S            1.6560     0.0000     0.0000 sy         1 8KX       1.051200
     22 O05          2.0580     0.0000     1.3630 o          1 8KX      -0.581300
     23 C15         -0.6990     0.9520     0.7450 ca         1 8KX       0.085600
     24 C16         -0.3210     1.2260     2.0540 ca         1 8KX      -0.149000
     25 C17         -1.0110     2.1710     2.7870 ca         1 8KX      -0.020000
     26 C18         -2.0750     2.8460     2.2190 ca         1 8KX      -0.230300
     27 C19         -2.4540     2.5760     0.9170 ca         1 8KX      -0.020000
     28 C20         -1.7690     1.6310     0.1790 ca         1 8KX      -0.149000
     29 F01         -4.1580     3.9220     2.5950 f          1 8KX      -0.208967
     30 F02         -2.7820     3.5350     4.3780 f          1 8KX      -0.208967
     31 F           -2.2360     5.1320     2.8380 f          1 8KX      -0.208967
     32 H1          -0.5000    -0.7040    -0.5060 hn         1 8KX       0.354800
     33 H2           6.5240     8.7120    -1.9240 ha         1 8KX       0.109000
     34 H3           7.0320     8.1500     0.4160 ha         1 8KX       0.109000
     35 H4           5.8880     6.2660     1.5220 ha         1 8KX       0.126000
     36 H5           4.8670     7.3970    -3.1900 ha         1 8KX       0.124000
     37 H6           3.1000     2.1860     1.1500 ha         1 8KX       0.153000
     38 H7           2.6320     2.9580    -4.3940 ho         1 8KX       0.401000
     39 H8           1.7440     0.6740    -3.4650 ho         1 8KX       0.424000
     40 H9           0.5130     0.6970     2.4990 ha         1 8KX       0.144000
     41 H10         -0.7170     2.3850     3.8070 ha         1 8KX       0.119000
     42 H11         -3.2890     3.1070     0.4760 ha         1 8KX       0.119000
     43 H12         -2.0660     1.4210    -0.8410 ha         1 8KX       0.144000
     44 O01          2.9980     5.6770    -3.3550 o          1 8KX      -0.516100
@<TRIPOS>BOND
     1     1    21 1   
     2     1    23 1   
     3     1    32 1   
     4     2    26 1   
     5     2    29 1   
     6     2    30 1   
     7     2    31 1   
     8     3    21 2   
     9     4     5 ar  
    10     4     9 ar  
    11     4    33 1   
    12     5     6 ar  
    13     5    34 1   
    14     6     7 ar  
    15     6    35 1   
    16     7     8 ar  
    17     7    10 1   
    18     8     9 ar  
    19     8    13 1   
    20     9    36 1   
    21    10    11 1   
    22    10    18 2   
    23    11    12 ar  
    24    11    14 ar  
    25    12    13 1   
    26    12    17 ar  
    27    13    44 2   
    28    14    15 ar  
    29    14    37 1   
    30    15    16 ar  
    31    15    21 1   
    32    16    17 ar  
    33    16    20 1   
    34    17    19 1   
    35    19    38 1   
    36    20    39 1   
    37    21    22 2   
    38    23    24 ar  
    39    23    28 ar  
    40    24    25 ar  
    41    24    40 1   
    42    25    26 ar  
    43    25    41 1   
    44    26    27 ar  
    45    27    28 ar  
    46    27    42 1   
    47    28    43 1   
@<TRIPOS>SUBSTRUCTURE
     1 8KX         1 TEMP              0 ****  ****    0 ROOT
