@<TRIPOS>MOLECULE
molecule
   44    47     1     0     0
SMALL
bcc


@<TRIPOS>ATOM
      1 N            0.0000     0.0000     0.0000 nu         1 8KX      -0.763500
      2 C           -2.8260     3.8760     3.0230 c3         1 8KX       0.674200
      3 O            2.0580    -0.9980    -0.9290 o          1 8KX      -0.626300
      4 C01          6.0170     7.8810    -1.4480 ca         1 8KX      -0.114000
      5 C02          6.3010     7.5670    -0.1310 ca         1 8KX      -0.113000
      6 C03          5.6610     6.5070     0.4910 ca         1 8KX      -0.079000
      7 C04          4.7280     5.7550    -0.2130 ca         1 8KX      -0.132600
      8 C05          4.4380     6.0750    -1.5520 ca         1 8KX      -0.134600
      9 C06          5.0850     7.1450    -2.1590 ca         1 8KX      -0.080000
     10 C07          4.0370     4.6170     0.4340 c          1 8KX       0.588300
     11 C08          3.2910     3.6560    -0.4030 ca         1 8KX      -0.155600
     12 C09          2.9990     3.9810    -1.7450 ca         1 8KX      -0.083600
     13 C10          3.4430     5.2740    -2.2980 c          1 8KX       0.575300
     14 C11          2.8760     2.4370     0.1210 ca         1 8KX       0.024000
     15 C12          2.1770     1.5430    -0.6720 ca         1 8KX      -0.316500
     16 C13          1.8840     1.8530    -1.9900 ca         1 8KX       0.194100
     17 C14          2.2940     3.0750    -2.5360 ca         1 8KX       0.084100
     18 O02          4.0830     4.4760     1.6410 o          1 8KX      -0.503100
     19 O03          2.0060     3.3770    -3.8270 oh         1 8KX      -0.480100
     20 O04          1.1970     0.9670    -2.7560 oh         1 8KX      -0.505100
     21 S            1.6560     0.0000     0.0000 sy         1 8KX       1.436200
     22 O05          2.0580     0.0000     1.3630 o          1 8KX      -0.626300
     23 C15         -0.6990     0.9520     0.7450 ca         1 8KX       0.160600
     24 C16         -0.3210     1.2260     2.0540 ca         1 8KX      -0.157500
     25 C17         -1.0110     2.1710     2.7870 ca         1 8KX      -0.063500
     26 C18         -2.0750     2.8460     2.2190 ca         1 8KX      -0.191300
     27 C19         -2.4540     2.5760     0.9170 ca         1 8KX      -0.063500
     28 C20         -1.7690     1.6310     0.1790 ca         1 8KX      -0.157500
     29 F01         -4.1580     3.9220     2.5950 f          1 8KX      -0.223300
     30 F02         -2.7820     3.5350     4.3780 f          1 8KX      -0.223300
     31 F           -2.2360     5.1320     2.8380 f          1 8KX      -0.223300
     32 H1          -0.5000    -0.7040    -0.5060 hn         1 8KX       0.473800
     33 H2           6.5240     8.7120    -1.9240 ha         1 8KX       0.141000
     34 H3           7.0320     8.1500     0.4160 ha         1 8KX       0.141000
     35 H4           5.8880     6.2660     1.5220 ha         1 8KX       0.158000
     36 H5           4.8670     7.3970    -3.1900 ha         1 8KX       0.156000
     37 H6           3.1000     2.1860     1.1500 ha         1 8KX       0.186000
     38 H7           2.6320     2.9580    -4.3940 ho         1 8KX       0.421000
     39 H8           1.7440     0.6740    -3.4650 ho         1 8KX       0.445000
     40 H9           0.5130     0.6970     2.4990 ha         1 8KX       0.166500
     41 H10         -0.7170     2.3850     3.8070 ha         1 8KX       0.153000
     42 H11         -3.2890     3.1070     0.4760 ha         1 8KX       0.153000
     43 H12         -2.0660     1.4210    -0.8410 ha         1 8KX       0.166500
     44 O01          2.9980     5.6770    -3.3550 o          1 8KX      -0.477100
@<TRIPOS>BOND
     1    30     2 1
     2    29     2 1
     3     2    31 1
     4     2    26 1
     5    25    26 ar
     6    25    24 ar
     7    26    27 ar
     8    24    23 ar
     9    27    28 ar
    10    23    28 ar
    11    23     1 1
    12     1    21 1
    13    22    21 2
    14    21    15 1
    15    21     3 2
    16    14    15 ar
    17    14    11 ar
    18    15    16 ar
    19    18    10 2
    20    20    16 1
    21    16    17 ar
    22    11    10 1
    23    11    12 ar
    24    10     7 1
    25    12    17 ar
    26    12    13 1
    27    17    19 1
    28     7     6 ar
    29     7     8 ar
    30     6     5 ar
    31    13     8 1
    32    13    44 2
    33     8     9 ar
    34     5     4 ar
    35     9     4 ar
    36     1    32 1
    37     4    33 1
    38     5    34 1
    39     6    35 1
    40     9    36 1
    41    14    37 1
    42    19    38 1
    43    20    39 1
    44    24    40 1
    45    25    41 1
    46    27    42 1
    47    28    43 1
@<TRIPOS>SUBSTRUCTURE
     1 8KX         1 TEMP              0 ****  ****    0 ROOT
