@<TRIPOS>MOLECULE
8KY
   50    51     1     0     0
SMALL
bcc


@<TRIPOS>ATOM
      1 C13          0.0000     0.0000     0.0000 c3         1 8KY      -0.029100
      2 O1           0.9080     2.4300     7.8850 os         1 8KY      -0.245900
      3 C2           1.3440    -1.7250    -1.8050 ca         1 8KY      -0.097000
      4 C1           2.0320    -1.2300    -0.7110 ca         1 8KY      -0.089300
      5 C12          2.0400     1.2490    -0.7210 c3         1 8KY      -0.029100
      6 C5           3.6400    -3.0000    -0.9290 ca         1 8KY      -0.040800
      7 C18          1.5290     1.7220     5.7010 ca         1 8KY      -0.247000
      8 C4           2.9420    -3.4930    -2.0310 ca         1 8KY      -0.098000
      9 O3           0.4760     1.9100    10.4000 o          1 8KY      -0.880300
     10 O4           1.0140     1.9340     1.8060 o          1 8KY      -0.700100
     11 C17          1.7480     2.0230     4.3640 ca         1 8KY      -0.048400
     12 C3           1.7980    -2.8540    -2.4620 ca         1 8KY      -0.099000
     13 C6           3.1770    -1.8600    -0.2700 ca         1 8KY      -0.101000
     14 C7           4.8670    -3.6800    -0.4630 ce         1 8KY      -0.078400
     15 C8           4.7880    -5.0800     0.0900 c3         1 8KY       0.060100
     16 C9           6.0370    -3.0590    -0.5300 c2         1 8KY      -0.167000
     17 C10          1.7040     1.0170     2.2070 c          1 8KY       0.573100
     18 C11          1.5300     0.0000     0.0000 c3         1 8KY       0.095700
     19 C19          1.1290     2.7210     6.5750 ca         1 8KY       0.191100
     20 C20          0.9520     4.0180     6.1130 ca         1 8KY      -0.098600
     21 C21          1.1770     4.3150     4.7810 ca         1 8KY      -0.060000
     22 C22          1.5660     3.3210     3.9050 ca         1 8KY      -0.165000
     23 C24          0.8190     0.9420     9.7630 c          1 8KY       0.974600
     24 C28          1.1080     1.0740     8.2900 c3         1 8KY       0.081400
     25 N3           2.0180     0.0000     1.3810 ns         1 8KY      -0.235900
     26 N4           2.1530     1.0160     3.4780 ns         1 8KY      -0.047100
     27 O25          0.9410    -0.2500    10.3680 o          1 8KY      -0.880300
     28 Cl           0.4510     5.2680     7.2080 cl         1 8KY      -0.017400
     29 H1          -0.3610     0.1350    -1.0120 hc         1 8KY       0.022033
     30 H2          -0.3610     0.8090     0.6230 hc         1 8KY       0.022033
     31 H3          -0.3610    -0.9440     0.3890 hc         1 8KY       0.022033
     32 H4           0.4450    -1.2270    -2.1480 ha         1 8KY       0.117000
     33 H5           3.0390     1.4840    -0.3750 hc         1 8KY       0.022033
     34 H6           2.0620     1.0660    -1.7890 hc         1 8KY       0.022033
     35 H7           1.3800     2.0820    -0.5120 hc         1 8KY       0.022033
     36 H8           1.6710     0.7100     6.0600 ha         1 8KY       0.137000
     37 H9           3.2970    -4.3770    -2.5470 ha         1 8KY       0.105000
     38 H10          1.2550    -3.2360    -3.3180 ha         1 8KY       0.100000
     39 H11          3.7150    -1.4720     0.5860 ha         1 8KY       0.116000
     40 H12          3.7500    -5.3540     0.2350 hc         1 8KY       0.008367
     41 H13          5.3090    -5.1230     1.0400 hc         1 8KY       0.008367
     42 H14          5.2500    -5.7700    -0.6060 hc         1 8KY       0.008367
     43 H15          6.0930    -2.0520    -0.9270 ha         1 8KY       0.089000
     44 H16          6.9360    -3.5570    -0.1880 ha         1 8KY       0.089000
     45 H17          1.0370     5.3270     4.4220 ha         1 8KY       0.102000
     46 H18          1.7390     3.5560     2.8620 ha         1 8KY       0.140000
     47 H19          2.1350     0.7870     8.0970 h1         1 8KY      -0.005300
     48 H20          0.4410     0.4280     7.7320 h1         1 8KY      -0.005300
     49 H21          2.5540    -0.7730     1.7220 hn         1 8KY       0.178500
     50 H22          2.8020     0.3170     3.7780 hn         1 8KY       0.158500
@<TRIPOS>BOND
     1     1    18 1   
     2     1    29 1   
     3     1    30 1   
     4     1    31 1   
     5     2    19 1   
     6     2    24 1   
     7     3     4 ar  
     8     3    12 ar  
     9     3    32 1   
    10     4    13 ar  
    11     4    18 1   
    12     5    18 1   
    13     5    33 1   
    14     5    34 1   
    15     5    35 1   
    16     6     8 ar  
    17     6    13 ar  
    18     6    14 1   
    19     7    11 ar  
    20     7    19 ar  
    21     7    36 1   
    22     8    12 ar  
    23     8    37 1   
    24     9    23 1   
    25    10    17 2   
    26    11    22 ar  
    27    11    26 1   
    28    12    38 1   
    29    13    39 1   
    30    14    15 1   
    31    14    16 2   
    32    15    40 1   
    33    15    41 1   
    34    15    42 1   
    35    16    43 1   
    36    16    44 1   
    37    17    25 1   
    38    17    26 1   
    39    18    25 1   
    40    19    20 ar  
    41    20    21 ar  
    42    20    28 1   
    43    21    22 ar  
    44    21    45 1   
    45    22    46 1   
    46    23    24 1   
    47    23    27 1   
    48    24    47 1   
    49    24    48 1   
    50    25    49 1   
    51    26    50 1   
@<TRIPOS>SUBSTRUCTURE
     1 8KY         1 TEMP              0 ****  ****    0 ROOT
