@<TRIPOS>MOLECULE
molecule
   50    51     1     0     0
SMALL
bcc


@<TRIPOS>ATOM
      1 C13          0.0000     0.0000     0.0000 c3         1 8KY      -0.101600
      2 O1           0.9080     2.4300     7.8850 os         1 8KY      -0.268900
      3 C2           1.3440    -1.7250    -1.8050 ca         1 8KY      -0.120000
      4 C1           2.0320    -1.2300    -0.7110 ca         1 8KY      -0.081300
      5 C12          2.0400     1.2490    -0.7210 c3         1 8KY      -0.101600
      6 C5           3.6400    -3.0000    -0.9290 ca         1 8KY      -0.049800
      7 C18          1.5290     1.7220     5.7010 ca         1 8KY      -0.257000
      8 C4           2.9420    -3.4930    -2.0310 ca         1 8KY      -0.122000
      9 O3           0.4760     1.9100    10.4000 o          1 8KY      -0.824300
     10 O4           1.0140     1.9340     1.8060 o          1 8KY      -0.654100
     11 C17          1.7480     2.0230     4.3640 ca         1 8KY       0.096600
     12 C3           1.7980    -2.8540    -2.4620 ca         1 8KY      -0.127000
     13 C6           3.1770    -1.8600    -0.2700 ca         1 8KY      -0.119000
     14 C7           4.8670    -3.6800    -0.4630 ce         1 8KY      -0.077400
     15 C8           4.7880    -5.0800     0.0900 c3         1 8KY      -0.050900
     16 C9           6.0370    -3.0590    -0.5300 c2         1 8KY      -0.215000
     17 C10          1.7040     1.0170     2.2070 c          1 8KY       0.785100
     18 C11          1.5300     0.0000     0.0000 c3         1 8KY       0.193700
     19 C19          1.1290     2.7210     6.5750 ca         1 8KY       0.186100
     20 C20          0.9520     4.0180     6.1130 ca         1 8KY      -0.030600
     21 C21          1.1770     4.3150     4.7810 ca         1 8KY      -0.085000
     22 C22          1.5660     3.3210     3.9050 ca         1 8KY      -0.184000
     23 C24          0.8190     0.9420     9.7630 c          1 8KY       0.895600
     24 C28          1.1080     1.0740     8.2900 c3         1 8KY       0.016400
     25 N3           2.0180     0.0000     1.3810 ns         1 8KY      -0.603900
     26 N4           2.1530     1.0160     3.4780 ns         1 8KY      -0.488100
     27 O25          0.9410    -0.2500    10.3680 o          1 8KY      -0.824300
     28 Cl           0.4510     5.2680     7.2080 cl         1 8KY      -0.102400
     29 H1          -0.3610     0.8090     0.6230 hc         1 8KY       0.049867
     30 H2          -0.3610    -0.9440     0.3890 hc         1 8KY       0.049867
     31 H3          -0.3610     0.1350    -1.0120 hc         1 8KY       0.049867
     32 H4           0.4450    -1.2270    -2.1480 ha         1 8KY       0.137000
     33 H5           3.0380     1.4860    -0.3720 hc         1 8KY       0.049867
     34 H6           1.3780     2.0810    -0.5150 hc         1 8KY       0.049867
     35 H7           2.0660     1.0650    -1.7890 hc         1 8KY       0.049867
     36 H8           1.6710     0.7100     6.0600 ha         1 8KY       0.151000
     37 H9           3.2970    -4.3770    -2.5470 ha         1 8KY       0.130000
     38 H10          1.2550    -3.2360    -3.3180 ha         1 8KY       0.128000
     39 H11          3.7150    -1.4720     0.5860 ha         1 8KY       0.136000
     40 H12          5.3080    -5.1230     1.0400 hc         1 8KY       0.044033
     41 H13          3.7500    -5.3540     0.2350 hc         1 8KY       0.044033
     42 H14          5.2500    -5.7700    -0.6060 hc         1 8KY       0.044033
     43 H15          6.9350    -3.5570    -0.1870 ha         1 8KY       0.117000
     44 H16          6.0930    -2.0520    -0.9260 ha         1 8KY       0.117000
     45 H17          1.0370     5.3270     4.4220 ha         1 8KY       0.134000
     46 H18          1.7390     3.5560     2.8620 ha         1 8KY       0.156000
     47 H19          0.4410     0.4280     7.7320 h1         1 8KY       0.025700
     48 H20          2.1350     0.7870     8.0970 h1         1 8KY       0.025700
     49 H21          2.5530    -0.7740     1.7220 hn         1 8KY       0.311500
     50 H22          2.8060     0.3190     3.7770 hn         1 8KY       0.316500
@<TRIPOS>BOND
     1     1    18 1
     2     3    12 ar
     3     3     4 ar
     4    12     8 ar
     5     5    18 1
     6    18     4 1
     7    18    25 1
     8     4    13 ar
     9     8     6 ar
    10    13     6 ar
    11     6    14 1
    12    25    17 1
    13    14    16 2
    14    14    15 1
    15    17    10 2
    16    17    26 1
    17    26    11 1
    18     9    23 1
    19    11     7 ar
    20    11    22 ar
    21     7    19 ar
    22    27    23 1
    23    23    24 1
    24    22    21 ar
    25    19     2 1
    26    19    20 ar
    27    24     2 1
    28    21    20 ar
    29    20    28 1
    30     1    29 1
    31     1    30 1
    32     1    31 1
    33     3    32 1
    34     5    33 1
    35     5    34 1
    36     5    35 1
    37     7    36 1
    38     8    37 1
    39    12    38 1
    40    13    39 1
    41    15    40 1
    42    15    41 1
    43    15    42 1
    44    16    43 1
    45    16    44 1
    46    21    45 1
    47    22    46 1
    48    24    47 1
    49    24    48 1
    50    25    49 1
    51    26    50 1
@<TRIPOS>SUBSTRUCTURE
     1 8KY         1 TEMP              0 ****  ****    0 ROOT
