@<TRIPOS>MOLECULE
molecule
   41    41     1     0     0
SMALL
bcc


@<TRIPOS>ATOM
      1 Cl1          0.0000     0.0000     0.0000 cl         1 8L0      -0.106400
      2 CD1          1.7350     0.0000     0.0000 ca         1 8L0       0.023400
      3 CG1          2.4270     0.0000     1.1990 ca         1 8L0      -0.108000
      4 CB           3.8090    -0.0000     1.1990 ca         1 8L0      -0.110300
      5 CA           4.5630    -0.0010     2.5040 c3         1 8L0       0.180300
      6 N            4.8070    -1.3820     2.9260 ns         1 8L0      -0.599900
      7 C5           5.4700    -1.6280     4.0730 c          1 8L0       0.792100
      8 O            5.8640    -0.7050     4.7580 o          1 8L0      -0.657100
      9 N2           5.6950    -2.8990     4.4620 ns         1 8L0      -0.578900
     10 C6           6.4150    -3.1670     5.7090 c3         1 8L0       0.072700
     11 C7           6.0170    -4.5460     6.2410 c3         1 8L0      -0.090400
     12 C8           4.5360    -4.5390     6.6230 c3         1 8L0      -0.078700
     13 C9           4.1100    -5.9490     7.0360 c3         1 8L0      -0.091100
     14 C10          4.3150    -3.5760     7.7900 c3         1 8L0      -0.091100
     15 C11          7.8980    -3.1370     5.4490 c          1 8L0       0.653100
     16 O2           8.3130    -2.9140     4.3320 o          1 8L0      -0.560100
     17 N3           8.7650    -3.3590     6.4580 ns         1 8L0      -0.475400
     18 O3          10.1590    -3.3300     6.2130 oh         1 8L0      -0.362100
     19 CG2          4.5010     0.0000     0.0020 ca         1 8L0      -0.109000
     20 C13          3.8100     0.0010    -1.1960 ca         1 8L0      -0.123000
     21 C14          2.4280    -0.0040    -1.1980 ca         1 8L0      -0.115000
     22 H1           1.8860     0.0110     2.1370 ha         1 8L0       0.148000
     23 H2           3.9780     0.5090     3.2590 h1         1 8L0       0.061700
     24 H3           5.5090     0.5100     2.3750 h1         1 8L0       0.061700
     25 H4           4.4920    -2.1420     2.3570 hn         1 8L0       0.312500
     26 H5           5.4000    -3.6590     3.8820 hn         1 8L0       0.315500
     27 H6           6.1610    -2.4110     6.4420 h1         1 8L0       0.101700
     28 H7           6.1890    -5.2920     5.4740 hc         1 8L0       0.053700
     29 H8           6.6140    -4.7820     7.1140 hc         1 8L0       0.053700
     30 H9           3.9460    -4.2180     5.7740 hc         1 8L0       0.057700
     31 H10          4.6480    -6.2420     7.9300 hc         1 8L0       0.037367
     32 H11          3.0450    -5.9600     7.2360 hc         1 8L0       0.037367
     33 H12          4.3340    -6.6430     6.2360 hc         1 8L0       0.037367
     34 H13          3.4220    -3.8630     8.3310 hc         1 8L0       0.037367
     35 H14          5.1690    -3.6140     8.4560 hc         1 8L0       0.037367
     36 H15          4.1990    -2.5680     7.4100 hc         1 8L0       0.037367
     37 H16          8.4230    -3.5230     7.3840 hn         1 8L0       0.316500
     38 H17         10.6220    -3.3200     7.0340 ho         1 8L0       0.396000
     39 H18          5.5840     0.0020     0.0020 ha         1 8L0       0.144000
     40 H19          4.3530    -0.0010    -2.1340 ha         1 8L0       0.140000
     41 H20          1.8870    -0.0040    -2.1360 ha         1 8L0       0.145000
@<TRIPOS>BOND
     1    18    17 1   
     2    16    15 2   
     3    17    15 1   
     4    15    10 1   
     5     8     7 2   
     6     7     9 1   
     7     7     6 1   
     8     5     6 1   
     9     5     4 1   
    10     9    10 1   
    11    10    11 1   
    12     4     3 ar  
    13     4    19 ar  
    14     3     2 ar  
    15    14    12 1   
    16    11    12 1   
    17    12    13 1   
    18    19    20 ar  
    19     2     1 1   
    20     2    21 ar  
    21    20    21 ar  
    22     3    22 1   
    23     5    23 1   
    24     5    24 1   
    25     6    25 1   
    26     9    26 1   
    27    10    27 1   
    28    11    28 1   
    29    11    29 1   
    30    12    30 1   
    31    13    31 1   
    32    13    32 1   
    33    13    33 1   
    34    14    34 1   
    35    14    35 1   
    36    14    36 1   
    37    17    37 1   
    38    18    38 1   
    39    19    39 1   
    40    20    40 1   
    41    21    41 1   
@<TRIPOS>SUBSTRUCTURE
     1 8L0         1 TEMP              0 ****  ****    0 ROOT
