@<TRIPOS>MOLECULE
molecule
   53    55     1     0     0
SMALL
bcc


@<TRIPOS>ATOM
      1 C1           0.0000     0.0000     0.0000 ca         1 8L1      -0.095300
      2 C2           1.3840     0.0000     0.0000 ca         1 8L1      -0.121000
      3 C3           2.0820     0.0000     1.1950 ca         1 8L1      -0.128000
      4 C8           0.0270     0.0040     4.9850 c3         1 8L1      -0.169400
      5 C4           1.4010     0.0010     2.3940 ca         1 8L1      -0.106000
      6 C5           0.0060     0.0020     2.4020 ca         1 8L1      -0.119900
      7 C6          -0.6920     0.0020     1.1930 ca         1 8L1      -0.082000
      8 C10         -0.3650     0.6720    -3.6170 c          1 8L1       0.785100
      9 C11         -0.7510     0.0060    -1.3060 c3         1 8L1       0.191700
     10 C12         -1.1230    -1.4290    -1.6870 c3         1 8L1      -0.102600
     11 C13         -2.0260     0.8400    -1.1580 c3         1 8L1      -0.102600
     12 C17         -0.1010     1.3940    -5.8700 ca         1 8L1       0.077600
     13 C18         -1.4400     1.7110    -6.0430 ca         1 8L1      -0.107000
     14 C19         -1.9460     1.8990    -7.3290 ca         1 8L1      -0.108500
     15 C20         -1.1020     1.7670    -8.4330 ca         1 8L1       0.044400
     16 C21          0.2290     1.4500    -8.2500 ca         1 8L1      -0.109000
     17 C22          0.7320     1.2690    -6.9750 ca         1 8L1      -0.144000
     18 C24         -3.3730     2.2360    -7.5210 cc         1 8L1       0.535900
     19 C26         -5.7990     2.7860    -7.4380 cc         1 8L1      -0.138400
     20 C27         -5.2350     2.7260    -8.6490 cd         1 8L1       0.283600
     21 C29         -6.0190     2.9780    -9.9100 c3         1 8L1       0.605600
     22 F1          -5.9680     4.3390   -10.2270 f          1 8L1      -0.215633
     23 F2          -5.4670     2.2340   -10.9590 f          1 8L1      -0.215633
     24 F3          -7.3510     2.5940    -9.7160 f          1 8L1      -0.215633
     25 N1          -2.0230     0.0040     3.6860 n2         1 8L1      -0.446200
     26 N3           0.0930     0.5860    -2.3530 ns         1 8L1      -0.593900
     27 N4           0.4120     1.2050    -4.5810 ns         1 8L1      -0.493100
     28 N5          -3.9540     2.4340    -8.6700 nd         1 8L1      -0.634000
     29 O1          -2.7280     0.0050     4.9130 oh         1 8L1      -0.388500
     30 O2          -1.4790     0.2670    -3.8890 o          1 8L1      -0.650100
     31 S           -4.5620     2.4280    -6.2340 ss         1 8L1      -0.180300
     32 Cl          -1.7280     1.9910   -10.0370 cl         1 8L1      -0.058400
     33 H1           1.9230    -0.0010    -0.9400 ha         1 8L1       0.127000
     34 H2           3.1650    -0.0000     1.1880 ha         1 8L1       0.135000
     35 H3           0.6520     0.8880     5.0400 hc         1 8L1       0.058700
     36 H4          -0.6890     0.0180     5.7980 hc         1 8L1       0.058700
     37 H5           0.6470    -0.8810     5.0640 hc         1 8L1       0.058700
     38 H6           1.9490     0.0010     3.3290 ha         1 8L1       0.138000
     39 H7          -1.7760     0.0020     1.1920 ha         1 8L1       0.160000
     40 H8          -1.9710    -1.4150    -2.3610 hc         1 8L1       0.052700
     41 H9          -0.2800    -1.9020    -2.1760 hc         1 8L1       0.052700
     42 H10         -1.3800    -1.9840    -0.7930 hc         1 8L1       0.052700
     43 H11         -2.5090     0.9350    -2.1230 hc         1 8L1       0.052700
     44 H12         -1.7720     1.8240    -0.7830 hc         1 8L1       0.052700
     45 H13         -2.6990     0.3510    -0.4640 hc         1 8L1       0.052700
     46 H14         -2.0900     1.8100    -5.1820 ha         1 8L1       0.171000
     47 H15          0.8830     1.3490    -9.1070 ha         1 8L1       0.151000
     48 H16          1.7780     1.0220    -6.8370 ha         1 8L1       0.138000
     49 H17         -6.8380     3.0110    -7.2330 h4         1 8L1       0.194000
     50 H18          0.9910     0.9620    -2.1200 hn         1 8L1       0.312500
     51 H19          1.3540     1.4710    -4.3740 hn         1 8L1       0.320500
     52 H20         -3.6550     0.0030     4.7430 ho         1 8L1       0.430000
     53 C7          -0.7290     0.0030     3.6820 ce         1 8L1       0.432900
@<TRIPOS>BOND
     1    32    15 1
     2    31    19 1
     3    31    18 1
     4    15    16 ar
     5    15    14 ar
     6    16    17 ar
     7    19    20 2
     8    18    14 1
     9    18    28 2
    10    14    13 ar
    11    20    28 1
    12    20    21 1
    13    24    21 1
    14    17    12 ar
    15    23    21 1
    16    21    22 1
    17    13    12 ar
    18    12    27 1
    19    27     8 1
    20     8    30 2
    21     8    26 1
    22    26     9 1
    23    10     9 1
    24     9    11 1
    25     9     1 1
    26    29    25 1
    27    25    53 2
    28     7     1 ar
    29     7     6 ar
    30     1     2 ar
    31    53     6 1
    32    53     4 1
    33     6     5 ar
    34     2     3 ar
    35     5     3 ar
    36     2    33 1
    37     3    34 1
    38     4    35 1
    39     4    36 1
    40     4    37 1
    41     5    38 1
    42     7    39 1
    43    10    40 1
    44    10    41 1
    45    10    42 1
    46    11    43 1
    47    11    44 1
    48    11    45 1
    49    13    46 1
    50    16    47 1
    51    17    48 1
    52    19    49 1
    53    26    50 1
    54    27    51 1
    55    29    52 1
@<TRIPOS>SUBSTRUCTURE
     1 8L1         1 TEMP              0 ****  ****    0 ROOT
