@<TRIPOS>MOLECULE
8L1
   53    55     1     0     0
SMALL
bcc


@<TRIPOS>ATOM
      1 C1           0.0000     0.0000     0.0000 ca         1 8L1      -0.104300
      2 C2           1.3840     0.0000     0.0000 ca         1 8L1      -0.105000
      3 C3           2.0820     0.0000     1.1950 ca         1 8L1      -0.097000
      4 C8           0.0270     0.0040     4.9850 c3         1 8L1      -0.059400
      5 C4           1.4010     0.0010     2.3940 ca         1 8L1      -0.088000
      6 C5           0.0060     0.0020     2.4020 ca         1 8L1      -0.124900
      7 C6          -0.6920     0.0020     1.1930 ca         1 8L1      -0.060000
      8 C10         -0.3650     0.6720    -3.6170 c          1 8L1       0.572100
      9 C11         -0.7510     0.0060    -1.3060 c3         1 8L1       0.092700
     10 C12         -1.1230    -1.4290    -1.6870 c3         1 8L1      -0.028600
     11 C13         -2.0260     0.8400    -1.1580 c3         1 8L1      -0.028600
     12 C17         -0.1010     1.3940    -5.8700 ca         1 8L1      -0.070400
     13 C18         -1.4400     1.7110    -6.0430 ca         1 8L1      -0.081000
     14 C19         -1.9460     1.8990    -7.3290 ca         1 8L1      -0.116500
     15 C20         -1.1020     1.7670    -8.4330 ca         1 8L1      -0.031600
     16 C21          0.2290     1.4500    -8.2500 ca         1 8L1      -0.086000
     17 C22          0.7320     1.2690    -6.9750 ca         1 8L1      -0.113000
     18 C24         -3.3730     2.2360    -7.5210 cc         1 8L1       0.538900
     19 C26         -5.7990     2.7860    -7.4380 cc         1 8L1      -0.050400
     20 C27         -5.2350     2.7260    -8.6490 cd         1 8L1       0.223600
     21 C29         -6.0190     2.9780    -9.9100 c3         1 8L1       0.559600
     22 F1          -5.9680     4.3390   -10.2270 f          1 8L1      -0.203967
     23 F2          -5.4670     2.2340   -10.9590 f          1 8L1      -0.203967
     24 F3          -7.3510     2.5940    -9.7160 f          1 8L1      -0.203967
     25 N1          -2.0230     0.0040     3.6860 n2         1 8L1      -0.405200
     26 N3           0.0930     0.5860    -2.3530 ns         1 8L1      -0.218900
     27 N4           0.4120     1.2050    -4.5810 ns         1 8L1      -0.057100
     28 N5          -3.9540     2.4340    -8.6700 nd         1 8L1      -0.524000
     29 O1          -2.7280     0.0050     4.9130 oh         1 8L1      -0.369500
     30 O2          -1.4790     0.2670    -3.8890 o          1 8L1      -0.694100
     31 S           -4.5620     2.4280    -6.2340 ss         1 8L1      -0.282300
     32 Cl          -1.7280     1.9910   -10.0370 cl         1 8L1       0.032600
     33 H1           1.9230    -0.0010    -0.9400 ha         1 8L1       0.104000
     34 H2           3.1650    -0.0000     1.1880 ha         1 8L1       0.105000
     35 H3          -0.6750     0.0080     5.8100 hc         1 8L1       0.023367
     36 H4           0.7370     0.8130     5.1100 hc         1 8L1       0.023367
     37 H5           0.5570    -0.9410     4.9670 hc         1 8L1       0.023367
     38 H6           1.9490     0.0010     3.3290 ha         1 8L1       0.112000
     39 H7          -1.7760     0.0020     1.1920 ha         1 8L1       0.137000
     40 H8          -1.9710    -1.4150    -2.3600 hc         1 8L1       0.024200
     41 H9          -1.3800    -1.9840    -0.7930 hc         1 8L1       0.024200
     42 H10         -0.2800    -1.9020    -2.1760 hc         1 8L1       0.024200
     43 H11         -2.5090     0.9350    -2.1230 hc         1 8L1       0.024200
     44 H12         -2.6990     0.3510    -0.4640 hc         1 8L1       0.024200
     45 H13         -1.7720     1.8240    -0.7830 hc         1 8L1       0.024200
     46 H14         -2.0900     1.8100    -5.1820 ha         1 8L1       0.154000
     47 H15          0.8830     1.3490    -9.1070 ha         1 8L1       0.117000
     48 H16          1.7780     1.0220    -6.8370 ha         1 8L1       0.108000
     49 H17         -6.8380     3.0110    -7.2330 h4         1 8L1       0.169000
     50 H18          0.9910     0.9630    -2.1200 hn         1 8L1       0.178500
     51 H19          1.3540     1.4720    -4.3740 hn         1 8L1       0.162500
     52 H20         -3.6550     0.0010     4.7430 ho         1 8L1       0.417000
     53 C7          -0.7290     0.0030     3.6820 ce         1 8L1       0.410900
@<TRIPOS>BOND
     1     1     2 ar  
     2     1     7 ar  
     3     1     9 1   
     4     2     3 ar  
     5     2    33 1   
     6     3     5 ar  
     7     3    34 1   
     8     4    35 1   
     9     4    36 1   
    10     4    37 1   
    11     4    53 1   
    12     5     6 ar  
    13     5    38 1   
    14     6     7 ar  
    15     6    53 1   
    16     7    39 1   
    17     8    26 1   
    18     8    27 1   
    19     8    30 2   
    20     9    10 1   
    21     9    11 1   
    22     9    26 1   
    23    10    40 1   
    24    10    41 1   
    25    10    42 1   
    26    11    43 1   
    27    11    44 1   
    28    11    45 1   
    29    12    13 ar  
    30    12    17 ar  
    31    12    27 1   
    32    13    14 ar  
    33    13    46 1   
    34    14    15 ar  
    35    14    18 1   
    36    15    16 ar  
    37    15    32 1   
    38    16    17 ar  
    39    16    47 1   
    40    17    48 1   
    41    18    28 2   
    42    18    31 1   
    43    19    20 2   
    44    19    31 1   
    45    19    49 1   
    46    20    21 1   
    47    20    28 1   
    48    21    22 1   
    49    21    23 1   
    50    21    24 1   
    51    25    29 1   
    52    25    53 2   
    53    26    50 1   
    54    27    51 1   
    55    29    52 1   
@<TRIPOS>SUBSTRUCTURE
     1 8L1         1 TEMP              0 ****  ****    0 ROOT
