@<TRIPOS>MOLECULE
molecule
   58    58     1     0     0
SMALL
bcc


@<TRIPOS>ATOM
      1 C3           0.0000     0.0000     0.0000 c3         1 8L2      -0.063200
      2 C8          -1.5830     4.5480    -0.2050 c3         1 8L2       0.216700
      3 C9          -2.0650     5.6750     0.6720 ca         1 8L2      -0.072300
      4 C10         -3.4090     5.7910     0.9710 ca         1 8L2      -0.102000
      5 C11         -3.8500     6.8260     1.7760 ca         1 8L2      -0.146000
      6 C12         -2.9480     7.7420     2.2820 ca         1 8L2      -0.131000
      7 C13         -1.6030     7.6240     1.9840 ca         1 8L2      -0.146000
      8 C14         -1.1610     6.5880     1.1820 ca         1 8L2      -0.102000
      9 C16          3.8480    -1.4660    -0.7170 c3         1 8L2       0.175500
     10 C19          6.2060    -0.9340     1.0640 c3         1 8L2      -0.090600
     11 C20          6.1700    -3.3490     1.7030 c3         1 8L2      -0.090600
     12 C21          4.3810    -2.0620    -1.9940 c          1 8L2       0.662100
     13 N23          5.6980    -1.9930    -2.2710 ns         1 8L2      -0.615900
     14 C24          6.2020    -2.4740    -3.5590 c3         1 8L2      -0.027300
     15 P2           1.8230     0.0000     0.0000 p5         1 8L2       1.117500
     16 O1           2.3590     0.0000     1.5180 o          1 8L2      -0.812000
     17 N4          -0.4880     1.1960     0.6910 ns         1 8L2      -0.519900
     18 C5          -0.8090     2.2980    -0.0160 c          1 8L2       0.746100
     19 O6          -0.6930     2.2990    -1.2250 o          1 8L2      -0.612000
     20 O7          -1.2570     3.3980     0.6190 os         1 8L2      -0.446900
     21 N15          2.3830    -1.3740    -0.7930 n7         1 8L2      -0.909300
     22 C17          4.2420    -2.3560     0.4640 c3         1 8L2      -0.105400
     23 C18          5.7620    -2.3340     0.6350 c3         1 8L2      -0.094700
     24 O27          2.3160     1.2080    -0.6980 o          1 8L2      -0.812000
     25 C28          6.4440    -3.9600    -3.4810 c          1 8L2       0.885600
     26 O29          6.9100    -4.6210    -4.5520 o          1 8L2      -0.793300
     27 O30          6.2190    -4.5540    -2.4530 o          1 8L2      -0.793300
     28 C25          7.5140    -1.7610    -3.8930 c3         1 8L2       0.072800
     29 H1          -0.3610    -0.0000    -1.0210 h1         1 8L2       0.056200
     30 H2          -0.3610    -0.8850     0.5110 h1         1 8L2       0.056200
     31 H3          -0.7010     4.8640    -0.7490 h1         1 8L2       0.053200
     32 H4          -2.3630     4.2790    -0.9080 h1         1 8L2       0.053200
     33 H5          -4.1220     5.0990     0.5400 ha         1 8L2       0.137500
     34 H6          -4.9040     6.9180     2.0110 ha         1 8L2       0.123000
     35 H7          -3.2940     8.5510     2.9130 ha         1 8L2       0.118000
     36 H8          -0.8990     8.3600     2.3550 ha         1 8L2       0.123000
     37 H9          -0.0900     6.6780     1.0480 ha         1 8L2       0.137500
     38 H10          4.2650    -0.4760    -0.5780 h1         1 8L2       0.085700
     39 H11          6.0090    -0.7800     2.1180 hc         1 8L2       0.031367
     40 H12          5.5970    -0.2700     0.4630 hc         1 8L2       0.031367
     41 H13          7.2570    -0.7860     0.8470 hc         1 8L2       0.031367
     42 H14          7.2490    -3.3510     1.8070 hc         1 8L2       0.031367
     43 H15          5.7170    -3.0800     2.6490 hc         1 8L2       0.031367
     44 H16          5.8350    -4.3370     1.4100 hc         1 8L2       0.031367
     45 H17          6.3250    -1.5700    -1.6160 hn         1 8L2       0.298500
     46 H18          5.4720    -2.2680    -4.3330 h1         1 8L2       0.086700
     47 H19          7.9380     0.2080    -4.4320 hn         1 8L2       0.462467
     48 H20          6.4510    -0.5570    -4.3100 hn         1 8L2       0.462467
     49 H23         -0.6220     1.1820     1.6830 hn         1 8L2       0.322500
     50 H24          1.8290    -2.2080    -0.8020 hn         1 8L2       0.399800
     51 H25          3.9140    -3.3720     0.2760 hc         1 8L2       0.075700
     52 H26          3.7720    -1.9870     1.3670 hc         1 8L2       0.075700
     53 H27          6.2350    -2.5900    -0.3060 hc         1 8L2       0.056700
     54 H29          8.2700    -2.0370    -3.1690 hx         1 8L2       0.108200
     55 H30          7.8410    -2.0510    -4.8850 hx         1 8L2       0.108200
     56 N26          7.3050    -0.3070    -3.8520 nz         1 8L2      -0.867600
     57 H263         7.1750     0.0550    -2.9280 hn         1 8L2       0.462467
     58 O22          3.6250    -2.6030    -2.7730 o          1 8L2      -0.577100
@<TRIPOS>BOND
     1     5     4 ar  
     2     5     6 ar  
     3     4     3 ar  
     4     6     7 ar  
     5     3     2 1   
     6     3     8 ar  
     7     2    20 1   
     8     7     8 ar  
     9    20    18 1   
    10    19    18 2   
    11    18    17 1   
    12    17     1 1   
    13     1    15 1   
    14    24    15 1   
    15    27    25 1   
    16    16    15 1   
    17    26    25 1   
    18    15    21 1   
    19    25    14 1   
    20    21     9 1   
    21    14    13 1   
    22    14    28 1   
    23    13    12 1   
    24    12    58 2   
    25    12     9 1   
    26     9    22 1   
    27    28    56 1   
    28    22    23 1   
    29    11    23 1   
    30    23    10 1   
    31     1    29 1   
    32     1    30 1   
    33     2    31 1   
    34     2    32 1   
    35     4    33 1   
    36     5    34 1   
    37     6    35 1   
    38     7    36 1   
    39     8    37 1   
    40     9    38 1   
    41    10    39 1   
    42    10    40 1   
    43    10    41 1   
    44    11    42 1   
    45    11    43 1   
    46    11    44 1   
    47    13    45 1   
    48    14    46 1   
    49    56    47 1   
    50    56    48 1   
    51    17    49 1   
    52    21    50 1   
    53    22    51 1   
    54    22    52 1   
    55    23    53 1   
    56    28    54 1   
    57    28    55 1   
    58    57    56 1   
@<TRIPOS>SUBSTRUCTURE
     1 8L2         1 TEMP              0 ****  ****    0 ROOT
