@<TRIPOS>MOLECULE
molecule
   43    45     1     0     0
SMALL
bcc


@<TRIPOS>ATOM
      1 CAA          0.0000     0.0000     0.0000 c3         1 8L3       0.155800
      2 CAC         -0.0570     1.1850     2.1120 c3         1 8L3       0.155800
      3 CAD          1.4710     1.2220     2.1760 c3         1 8L3      -0.070400
      4 CAE          2.0350     0.0000     1.4460 c3         1 8L3      -0.057000
      5 CAF          3.5650     0.0620     1.4530 c3         1 8L3       0.138400
      6 CAH          5.4440    -1.1780     0.6880 ca         1 8L3       0.007800
      7 CAI          6.0330    -2.2590     0.0400 ca         1 8L3      -0.130000
      8 CAJ          7.4160    -2.3130    -0.0250 ca         1 8L3      -0.218300
      9 CAK          8.1590    -1.3000     0.5520 ca         1 8L3       0.378200
     10 CAM          6.2570    -0.2000     1.2430 ca         1 8L3       0.332200
     11 CAN          1.5720    -1.2770     2.1510 c3         1 8L3      -0.031100
     12 CAO          2.1290    -2.4780     1.4310 ca         1 8L3      -0.062300
     13 CAP          3.3570    -2.9970     1.7990 ca         1 8L3      -0.073000
     14 CAQ          3.8690    -4.0980     1.1400 ca         1 8L3      -0.127000
     15 CAR          3.1520    -4.6830     0.1110 ca         1 8L3       0.026400
     16 CAT          1.9220    -4.1640    -0.2580 ca         1 8L3       0.027400
     17 CAV          1.4090    -3.0650     0.4070 ca         1 8L3      -0.113000
     18 CAW          1.5310     0.0000     0.0000 c3         1 8L3      -0.070400
     19 NAB         -0.4900     1.1880     0.7090 n7         1 8L3      -0.817200
     20 NAL          7.5690    -0.2890     1.1590 nb         1 8L3      -0.658000
     21 OAG          4.0910    -1.0800     0.7720 os         1 8L3      -0.315900
     22 ClS          3.7950    -6.0660    -0.7180 cl         1 8L3      -0.093400
     23 ClU          1.0230    -4.8960    -1.5500 cl         1 8L3      -0.092400
     24 H1          -0.3600    -0.8910     0.5000 h1         1 8L3       0.034450
     25 H2          -0.3600     0.0170    -1.0220 h1         1 8L3       0.034450
     26 H3          -0.4590     2.0570     2.6140 h1         1 8L3       0.034450
     27 H4          -0.4160     0.2860     2.5980 h1         1 8L3       0.034450
     28 H5           1.8300     2.1250     1.6990 hc         1 8L3       0.058950
     29 H6           1.7890     1.2020     3.2110 hc         1 8L3       0.058950
     30 H7           3.8920     0.9650     0.9520 h1         1 8L3       0.040700
     31 H8           3.9210     0.0670     2.4770 h1         1 8L3       0.040700
     32 H9           5.4260    -3.0390    -0.4030 ha         1 8L3       0.157000
     33 H10          7.9100    -3.1390    -0.5210 ha         1 8L3       0.143000
     34 H11          9.2410    -1.3370     0.5040 h4         1 8L3       0.025100
     35 H12          5.8080     0.6460     1.7500 h4         1 8L3       0.024100
     36 H13          1.9270    -1.2730     3.1740 hc         1 8L3       0.055700
     37 H14          0.4900    -1.3210     2.1440 hc         1 8L3       0.055700
     38 H15          3.9180    -2.5390     2.6050 ha         1 8L3       0.139000
     39 H16          4.8310    -4.5040     1.4290 ha         1 8L3       0.149000
     40 H17          0.4470    -2.6590     0.1190 ha         1 8L3       0.148000
     41 H18          1.8920    -0.8860    -0.5080 hc         1 8L3       0.058950
     42 H19          1.8910     0.8860    -0.5080 hc         1 8L3       0.058950
     43 H20         -1.4900     1.2120     0.6690 hn         1 8L3       0.355800
@<TRIPOS>BOND
     1    23    16 1
     2    22    15 1
     3    16    15 ar
     4    16    17 ar
     5    15    14 ar
     6    17    12 ar
     7    14    13 ar
     8    12    13 ar
     9    12    11 1
    10    11     4 1
    11    18     4 1
    12    18     1 1
    13     4     3 1
    14     4     5 1
    15     1    19 1
    16     3     2 1
    17     5    21 1
    18    19     2 1
    19    21     6 1
    20     6     7 ar
    21     6    10 ar
    22     7     8 ar
    23    10    20 ar
    24     8     9 ar
    25    20     9 ar
    26     1    24 1
    27     1    25 1
    28     2    26 1
    29     2    27 1
    30     3    28 1
    31     3    29 1
    32     5    30 1
    33     5    31 1
    34     7    32 1
    35     8    33 1
    36     9    34 1
    37    10    35 1
    38    11    36 1
    39    11    37 1
    40    13    38 1
    41    14    39 1
    42    17    40 1
    43    18    41 1
    44    18    42 1
    45    19    43 1
@<TRIPOS>SUBSTRUCTURE
     1 8L3         1 TEMP              0 ****  ****    0 ROOT
