@<TRIPOS>MOLECULE
8L3
   43    45     1     0     0
SMALL
bcc


@<TRIPOS>ATOM
      1 CAA          0.0000     0.0000     0.0000 c3         1 8L3       0.138300
      2 CAC         -0.0570     1.1850     2.1120 c3         1 8L3       0.138300
      3 CAD          1.4710     1.2220     2.1760 c3         1 8L3      -0.025900
      4 CAE          2.0350     0.0000     1.4460 c3         1 8L3      -0.064000
      5 CAF          3.5650     0.0620     1.4530 c3         1 8L3       0.197400
      6 CAH          5.4440    -1.1780     0.6880 ca         1 8L3       0.024800
      7 CAI          6.0330    -2.2590     0.0400 ca         1 8L3      -0.127000
      8 CAJ          7.4160    -2.3130    -0.0250 ca         1 8L3      -0.178300
      9 CAK          8.1590    -1.3000     0.5520 ca         1 8L3       0.356200
     10 CAM          6.2570    -0.2000     1.2430 ca         1 8L3       0.296200
     11 CAN          1.5720    -1.2770     2.1510 c3         1 8L3       0.020900
     12 CAO          2.1290    -2.4780     1.4310 ca         1 8L3      -0.068300
     13 CAP          3.3570    -2.9970     1.7990 ca         1 8L3      -0.059000
     14 CAQ          3.8690    -4.0980     1.1400 ca         1 8L3      -0.103000
     15 CAR          3.1520    -4.6830     0.1110 ca         1 8L3      -0.042600
     16 CAT          1.9220    -4.1640    -0.2580 ca         1 8L3      -0.038600
     17 CAV          1.4090    -3.0650     0.4070 ca         1 8L3      -0.096000
     18 CAW          1.5310     0.0000     0.0000 c3         1 8L3      -0.025900
     19 NAB         -0.4900     1.1880     0.7090 n7         1 8L3      -0.576200
     20 NAL          7.5690    -0.2890     1.1590 nb         1 8L3      -0.541000
     21 OAG          4.0910    -1.0800     0.7720 os         1 8L3      -0.286900
     22 ClS          3.7950    -6.0660    -0.7180 cl         1 8L3      -0.009400
     23 ClU          1.0230    -4.8960    -1.5500 cl         1 8L3      -0.008400
     24 H1          -0.3600    -0.8910     0.5000 h1         1 8L3       0.010200
     25 H2          -0.3600     0.0170    -1.0220 h1         1 8L3       0.010200
     26 H3          -0.4590     2.0570     2.6140 h1         1 8L3       0.010200
     27 H4          -0.4160     0.2860     2.5980 h1         1 8L3       0.010200
     28 H5           1.8300     2.1250     1.6990 hc         1 8L3       0.031450
     29 H6           1.7890     1.2020     3.2110 hc         1 8L3       0.031450
     30 H7           3.8920     0.9650     0.9520 h1         1 8L3       0.010200
     31 H8           3.9210     0.0670     2.4770 h1         1 8L3       0.010200
     32 H9           5.4260    -3.0390    -0.4030 ha         1 8L3       0.132000
     33 H10          7.9100    -3.1390    -0.5210 ha         1 8L3       0.113000
     34 H11          9.2410    -1.3370     0.5040 h4         1 8L3      -0.017900
     35 H12          5.8080     0.6460     1.7500 h4         1 8L3      -0.006900
     36 H13          1.9270    -1.2730     3.1740 hc         1 8L3       0.030200
     37 H14          0.4900    -1.3210     2.1440 hc         1 8L3       0.030200
     38 H15          3.9180    -2.5390     2.6050 ha         1 8L3       0.114000
     39 H16          4.8310    -4.5040     1.4290 ha         1 8L3       0.120000
     40 H17          0.4470    -2.6590     0.1190 ha         1 8L3       0.125000
     41 H18          1.8920    -0.8860    -0.5080 hc         1 8L3       0.031450
     42 H19          1.8910     0.8860    -0.5080 hc         1 8L3       0.031450
     43 H20         -1.4900     1.2120     0.6690 hn         1 8L3       0.251800
@<TRIPOS>BOND
     1     1    18 1   
     2     1    19 1   
     3     1    24 1   
     4     1    25 1   
     5     2     3 1   
     6     2    19 1   
     7     2    26 1   
     8     2    27 1   
     9     3     4 1   
    10     3    28 1   
    11     3    29 1   
    12     4     5 1   
    13     4    11 1   
    14     4    18 1   
    15     5    21 1   
    16     5    30 1   
    17     5    31 1   
    18     6     7 ar  
    19     6    10 ar  
    20     6    21 1   
    21     7     8 ar  
    22     7    32 1   
    23     8     9 ar  
    24     8    33 1   
    25     9    20 ar  
    26     9    34 1   
    27    10    20 ar  
    28    10    35 1   
    29    11    12 1   
    30    11    36 1   
    31    11    37 1   
    32    12    13 ar  
    33    12    17 ar  
    34    13    14 ar  
    35    13    38 1   
    36    14    15 ar  
    37    14    39 1   
    38    15    16 ar  
    39    15    22 1   
    40    16    17 ar  
    41    16    23 1   
    42    17    40 1   
    43    18    41 1   
    44    18    42 1   
    45    19    43 1   
@<TRIPOS>SUBSTRUCTURE
     1 8L3         1 TEMP              0 ****  ****    0 ROOT
