@<TRIPOS>MOLECULE
molecule
   43    44     1     0     0
SMALL
bcc


@<TRIPOS>ATOM
      1 C7           0.0000     0.0000     0.0000 ce         1 8L4       0.712800
      2 C13          5.3660    -1.4290    -1.2330 c3         1 8L4      -0.103100
      3 C17          5.6910     1.1980    -5.5880 ca         1 8L4       0.079600
      4 C18          6.5720     0.1450    -5.7870 ca         1 8L4      -0.140000
      5 C19          7.3940     0.1350    -6.8970 ca         1 8L4      -0.104000
      6 C20          7.3400     1.1750    -7.8090 ca         1 8L4       0.008400
      7 C21          6.4640     2.2270    -7.6110 ca         1 8L4      -0.104000
      8 C22          5.6380     2.2410    -6.5040 ca         1 8L4      -0.140000
      9 C1           3.7580     0.0000     0.0000 ca         1 8L4      -0.093300
     10 C10          5.2740     0.6730    -3.3040 c          1 8L4       0.785100
     11 C11          4.8910     0.0050    -0.9920 c3         1 8L4       0.193700
     12 C12          6.0490     0.8390    -0.4380 c3         1 8L4      -0.103100
     13 C2           4.0270     0.0000     1.3570 ca         1 8L4      -0.105000
     14 C3           2.9920    -0.0000     2.2740 ca         1 8L4      -0.126000
     15 C4           1.6820     0.0010     1.8390 ca         1 8L4      -0.122000
     16 C5           1.4030     0.0000     0.4730 ca         1 8L4      -0.116900
     17 C6           2.4510     0.0000    -0.4460 ca         1 8L4      -0.080000
     18 N1          -1.0340     0.0060     0.9120 nu         1 8L4      -0.743700
     19 N2          -0.2570     0.0000    -1.2760 n2         1 8L4      -0.877100
     20 N3           4.4320     0.5860    -2.2560 ns         1 8L4      -0.595900
     21 N4           4.8520     1.2080    -4.4670 ns         1 8L4      -0.492100
     22 O1          -2.3760     0.0120     0.4600 oh         1 8L4      -0.343300
     23 O2           6.4160     0.2680    -3.2010 o          1 8L4      -0.653100
     24 Cl           8.3760     1.1610    -9.2020 cl         1 8L4      -0.115400
     25 H1           4.7620    -1.8840    -2.0090 hc         1 8L4       0.051700
     26 H2           6.4040    -1.4190    -1.5430 hc         1 8L4       0.051700
     27 H3           5.2680    -2.0010    -0.3180 hc         1 8L4       0.051700
     28 H4           6.6150    -0.6690    -5.0740 ha         1 8L4       0.152500
     29 H5           8.0820    -0.6870    -7.0540 ha         1 8L4       0.145500
     30 H6           6.4230     3.0400    -8.3260 ha         1 8L4       0.145500
     31 H7           4.9510     3.0640    -6.3490 ha         1 8L4       0.152500
     32 H8           6.4770     0.3370     0.4210 hc         1 8L4       0.051700
     33 H9           5.6830     1.8140    -0.1410 hc         1 8L4       0.051700
     34 H10          6.8080     0.9560    -1.2030 hc         1 8L4       0.051700
     35 H11          5.0540    -0.0010     1.7030 ha         1 8L4       0.142000
     36 H12          3.2090     0.0000     3.3350 ha         1 8L4       0.136000
     37 H13          0.8720     0.0010     2.5590 ha         1 8L4       0.122000
     38 H14          2.2420    -0.0690    -1.5070 ha         1 8L4       0.162000
     39 H15         -0.8360    -0.0050     1.8930 hn         1 8L4       0.441800
     40 H16         -1.2050     0.0020    -1.5950 hn         1 8L4       0.417400
     41 H17          3.5030     0.9530    -2.3290 hn         1 8L4       0.319500
     42 H18          3.9340     1.6010    -4.5320 hn         1 8L4       0.321500
     43 H19         -2.9570     0.0150     1.2020 ho         1 8L4       0.411000
@<TRIPOS>BOND
     1    14    15 ar
     2    14    13 ar
     3    15    16 ar
     4    13     9 ar
     5    18    22 1
     6    18     1 1
     7    16     1 1
     8    16    17 ar
     9     1    19 2
    10     9    17 ar
    11     9    11 1
    12     2    11 1
    13    11    12 1
    14    11    20 1
    15    20    10 1
    16    23    10 2
    17    10    21 1
    18    21     3 1
    19     3     4 ar
    20     3     8 ar
    21     4     5 ar
    22     8     7 ar
    23     5     6 ar
    24     7     6 ar
    25     6    24 1
    26     2    25 1
    27     2    26 1
    28     2    27 1
    29     4    28 1
    30     5    29 1
    31     7    30 1
    32     8    31 1
    33    12    32 1
    34    12    33 1
    35    12    34 1
    36    13    35 1
    37    14    36 1
    38    15    37 1
    39    17    38 1
    40    18    39 1
    41    19    40 1
    42    20    41 1
    43    21    42 1
    44    22    43 1
@<TRIPOS>SUBSTRUCTURE
     1 8L4         1 TEMP              0 ****  ****    0 ROOT
