@<TRIPOS>MOLECULE
8L4
   43    44     1     0     0
SMALL
bcc


@<TRIPOS>ATOM
      1 C7           0.0000     0.0000     0.0000 ce         1 8L4       0.507800
      2 C13          5.3660    -1.4290    -1.2330 c3         1 8L4      -0.027100
      3 C17          5.6910     1.1980    -5.5880 ca         1 8L4      -0.069400
      4 C18          6.5720     0.1450    -5.7870 ca         1 8L4      -0.112500
      5 C19          7.3940     0.1350    -6.8970 ca         1 8L4      -0.079000
      6 C20          7.3400     1.1750    -7.8090 ca         1 8L4      -0.049600
      7 C21          6.4640     2.2270    -7.6110 ca         1 8L4      -0.079000
      8 C22          5.6380     2.2410    -6.5040 ca         1 8L4      -0.112500
      9 C1           3.7580     0.0000     0.0000 ca         1 8L4      -0.088300
     10 C10          5.2740     0.6730    -3.3040 c          1 8L4       0.573100
     11 C11          4.8910     0.0050    -0.9920 c3         1 8L4       0.091700
     12 C12          6.0490     0.8390    -0.4380 c3         1 8L4      -0.027100
     13 C2           4.0270     0.0000     1.3570 ca         1 8L4      -0.084000
     14 C3           2.9920    -0.0000     2.2740 ca         1 8L4      -0.087000
     15 C4           1.6820     0.0010     1.8390 ca         1 8L4      -0.097000
     16 C5           1.4030     0.0000     0.4730 ca         1 8L4      -0.154900
     17 C6           2.4510     0.0000    -0.4460 ca         1 8L4      -0.100000
     18 N1          -1.0340     0.0060     0.9120 nu         1 8L4      -0.265700
     19 N2          -0.2570     0.0000    -1.2760 n2         1 8L4      -0.740100
     20 N3           4.4320     0.5860    -2.2560 ns         1 8L4      -0.223900
     21 N4           4.8520     1.2080    -4.4670 ns         1 8L4      -0.053100
     22 O1          -2.3760     0.0120     0.4600 oh         1 8L4      -0.392300
     23 O2           6.4160     0.2680    -3.2010 o          1 8L4      -0.695100
     24 Cl           8.3760     1.1610    -9.2020 cl         1 8L4      -0.033400
     25 H1           4.7770    -1.8760    -2.0250 hc         1 8L4       0.023533
     26 H2           5.2450    -2.0070    -0.3250 hc         1 8L4       0.023533
     27 H3           6.4100    -1.4210    -1.5200 hc         1 8L4       0.023533
     28 H4           6.6150    -0.6690    -5.0740 ha         1 8L4       0.126000
     29 H5           8.0820    -0.6870    -7.0540 ha         1 8L4       0.114000
     30 H6           6.4230     3.0400    -8.3260 ha         1 8L4       0.114000
     31 H7           4.9510     3.0640    -6.3490 ha         1 8L4       0.126000
     32 H8           5.6830     1.8140    -0.1410 hc         1 8L4       0.023533
     33 H9           6.4770     0.3370     0.4210 hc         1 8L4       0.023533
     34 H10          6.8080     0.9560    -1.2030 hc         1 8L4       0.023533
     35 H11          5.0540    -0.0010     1.7030 ha         1 8L4       0.120000
     36 H12          3.2090     0.0000     3.3350 ha         1 8L4       0.107000
     37 H13          0.8720     0.0010     2.5590 ha         1 8L4       0.103000
     38 H14          2.2420    -0.0740    -1.5070 ha         1 8L4       0.120000
     39 H15         -0.8360    -0.0010     1.8930 hn         1 8L4       0.277800
     40 H16          0.4940    -0.0020    -1.9380 hn         1 8L4       0.321400
     41 H17          3.5030     0.9530    -2.3290 hn         1 8L4       0.178500
     42 H18          3.9390     1.6130    -4.5290 hn         1 8L4       0.162500
     43 H19         -2.9570     0.0090     1.2020 ho         1 8L4       0.387000
@<TRIPOS>BOND
     1     1    16 1   
     2     1    18 1   
     3     1    19 2   
     4     2    11 1   
     5     2    25 1   
     6     2    26 1   
     7     2    27 1   
     8     3     4 ar  
     9     3     8 ar  
    10     3    21 1   
    11     4     5 ar  
    12     4    28 1   
    13     5     6 ar  
    14     5    29 1   
    15     6     7 ar  
    16     6    24 1   
    17     7     8 ar  
    18     7    30 1   
    19     8    31 1   
    20     9    11 1   
    21     9    13 ar  
    22     9    17 ar  
    23    10    20 1   
    24    10    21 1   
    25    10    23 2   
    26    11    12 1   
    27    11    20 1   
    28    12    32 1   
    29    12    33 1   
    30    12    34 1   
    31    13    14 ar  
    32    13    35 1   
    33    14    15 ar  
    34    14    36 1   
    35    15    16 ar  
    36    15    37 1   
    37    16    17 ar  
    38    17    38 1   
    39    18    22 1   
    40    18    39 1   
    41    19    40 1   
    42    20    41 1   
    43    21    42 1   
    44    22    43 1   
@<TRIPOS>SUBSTRUCTURE
     1 8L4         1 TEMP              0 ****  ****    0 ROOT
