@<TRIPOS>MOLECULE
8L5
   53    53     1     0     0
SMALL
bcc


@<TRIPOS>ATOM
      1 C10          0.0000     0.0000     0.0000 c3         1 8L5       0.279700
      2 C11          1.5080     0.0000     0.0000 ca         1 8L5      -0.115300
      3 C12          2.2360     0.0000     1.1800 ca         1 8L5      -0.083500
      4 C13          3.6130     0.0110     1.1550 ca         1 8L5      -0.108000
      5 C14          4.3000     0.0220    -0.0440 ca         1 8L5      -0.104000
      6 C15          3.6000    -0.0110    -1.2240 ca         1 8L5      -0.108000
      7 C16          2.2170    -0.0200    -1.2150 ca         1 8L5      -0.083500
      8 O01         -4.2290    -3.7870     3.1140 o          1 8L5      -0.607000
      9 P01         -2.8550    -4.0100     3.7290 p5         1 8L5       0.542500
     10 N01         -3.0810    -4.3640     5.3320 n7         1 8L5      -0.639300
     11 C01         -4.2970    -5.0710     5.7720 c3         1 8L5       0.167500
     12 C02         -3.9720    -5.9140     7.0060 c3         1 8L5      -0.044400
     13 C03         -5.1160    -6.7410     7.5420 c3         1 8L5      -0.058700
     14 C04         -5.4950    -7.8760     6.5870 c3         1 8L5       0.009900
     15 C05         -4.8100    -7.2840     8.9210 c3         1 8L5       0.009900
     16 C06         -5.3910    -4.0880     6.1460 c          1 8L5       0.629100
     17 O02         -6.5610    -4.3140     5.9970 o          1 8L5      -0.608100
     18 O03         -2.0870    -5.0480     2.9600 o          1 8L5      -0.607000
     19 C08         -1.8990    -2.4510     3.7360 c3         1 8L5      -0.002200
     20 N04         -1.2980    -2.2430     2.4570 ns         1 8L5      -0.106900
     21 C09         -1.0340    -1.0120     1.9000 c          1 8L5       0.668100
     22 O04         -0.4900    -1.1560     0.6410 os         1 8L5      -0.419900
     23 O05         -1.2520     0.0190     2.4670 o          1 8L5      -0.661000
     24 N02         -4.9500    -2.9340     6.7740 ns         1 8L5      -0.278900
     25 C07         -5.8480    -1.9170     7.3130 c3         1 8L5       0.001200
     26 N03         -6.2900    -2.2930     8.5690 nz         1 8L5       0.065400
     27 H22         -0.3580     0.8790     0.5230 h1         1 8L5       0.020200
     28 H21         -0.3580     0.0210    -1.0220 h1         1 8L5       0.020200
     29 H23          1.7170    -0.0090     2.1310 ha         1 8L5       0.106500
     30 H24          4.1650     0.0080     2.0880 ha         1 8L5       0.098000
     31 H25          5.3790    -0.0770    -0.0510 ha         1 8L5       0.098000
     32 H26          4.1340    -0.0290    -2.1670 ha         1 8L5       0.098000
     33 H27          1.7000     0.0240    -2.1650 ha         1 8L5       0.106500
     34 H02         -4.6470    -5.7160     4.9750 h1         1 8L5       0.093700
     35 H03         -3.6360    -5.2490     7.7930 hc         1 8L5       0.015200
     36 H04         -3.1580    -6.5830     6.7550 hc         1 8L5       0.015200
     37 H05         -5.9770    -6.0890     7.6310 hc         1 8L5       0.001700
     38 H06         -6.1300    -8.5850     7.1040 hc         1 8L5       0.005533
     39 H08         -6.0270    -7.4690     5.7360 hc         1 8L5       0.005533
     40 H07         -4.5970    -8.3760     6.2460 hc         1 8L5       0.005533
     41 H09         -5.6900    -7.7730     9.3210 hc         1 8L5       0.005533
     42 H11         -3.9980    -7.9980     8.8570 hc         1 8L5       0.005533
     43 H10         -4.5220    -6.4690     9.5750 hc         1 8L5       0.005533
     44 H20         -1.0500    -3.0540     1.9260 hn         1 8L5       0.196500
     45 H12         -3.9640    -2.7890     6.8620 hn         1 8L5       0.224500
     46 H13         -6.6990    -1.8020     6.6520 hx         1 8L5       0.088700
     47 H14         -5.3200    -0.9740     7.3850 hx         1 8L5       0.088700
     48 H16         -6.9670    -3.0250     8.4790 hn         1 8L5       0.219133
     49 H3          -5.5150    -2.6190     9.1120 hn         1 8L5       0.219133
     50 H01         -2.3820    -4.1120     6.0010 hn         1 8L5       0.273800
     51 H18         -2.5620    -1.6230     3.9610 h1         1 8L5       0.012200
     52 H19         -1.1250    -2.5070     4.4920 h1         1 8L5       0.012200
     53 H033        -6.7200    -1.5090     9.0200 hn         1 8L5       0.219133
@<TRIPOS>BOND
     1     1     2 1   
     2     1    22 1   
     3     1    27 1   
     4     1    28 1   
     5     2     3 ar  
     6     2     7 ar  
     7     3     4 ar  
     8     3    29 1   
     9     4     5 ar  
    10     4    30 1   
    11     5     6 ar  
    12     5    31 1   
    13     6     7 ar  
    14     6    32 1   
    15     7    33 1   
    16     8     9 1   
    17     9    10 1   
    18     9    18 1   
    19     9    19 1   
    20    10    11 1   
    21    10    50 1   
    22    11    12 1   
    23    11    16 1   
    24    11    34 1   
    25    12    13 1   
    26    12    35 1   
    27    12    36 1   
    28    13    14 1   
    29    13    15 1   
    30    13    37 1   
    31    14    38 1   
    32    14    39 1   
    33    14    40 1   
    34    15    41 1   
    35    15    42 1   
    36    15    43 1   
    37    16    17 2   
    38    16    24 1   
    39    19    20 1   
    40    19    51 1   
    41    19    52 1   
    42    20    21 1   
    43    20    44 1   
    44    21    22 1   
    45    21    23 2   
    46    24    25 1   
    47    24    45 1   
    48    25    26 1   
    49    25    46 1   
    50    25    47 1   
    51    26    48 1   
    52    26    49 1   
    53    26    53 1   
@<TRIPOS>SUBSTRUCTURE
     1 8L5         1 TEMP              0 ****  ****    0 ROOT
