@<TRIPOS>MOLECULE
8L7
   63    65     1     0     0
SMALL
bcc


@<TRIPOS>ATOM
      1 C1           0.0000     0.0000     0.0000 ca         1 8L7      -0.095300
      2 C10         -2.9640    -0.6140    -2.1240 c          1 8L7       0.573100
      3 C11         -0.7520    -0.0010    -1.3060 c3         1 8L7       0.094700
      4 C12         -0.8340     1.4270    -1.8480 c3         1 8L7      -0.028100
      5 C13         -0.0220    -0.8880    -2.3150 c3         1 8L7      -0.028100
      6 C17         -5.0650    -1.2870    -3.0150 ca         1 8L7      -0.024400
      7 C18         -5.0340    -0.4090    -4.0900 ca         1 8L7      -0.154000
      8 C19         -5.8760    -0.6040    -5.1690 ca         1 8L7      -0.033000
      9 C2           1.3830     0.0000     0.0000 ca         1 8L7      -0.095000
     10 C20         -6.7510    -1.6740    -5.1810 ca         1 8L7      -0.124600
     11 C21         -6.7860    -2.5570    -4.1070 ca         1 8L7       0.096600
     12 C22         -5.9430    -2.3630    -3.0230 ca         1 8L7      -0.230000
     13 C24         -7.6250    -4.6350    -3.0470 c3         1 8L7       0.335300
     14 C25         -8.0000    -6.0250    -3.6040 c3         1 8L7       0.128100
     15 C26         -8.8570    -6.6210    -2.4550 c3         1 8L7       0.132100
     16 C27         -9.5600    -5.3480    -1.9220 c3         1 8L7       0.164100
     17 C29         -9.9700    -5.5400    -0.4600 c3         1 8L7       0.220400
     18 C3           2.0810     0.0000     1.1940 ca         1 8L7      -0.094000
     19 C4           1.4020     0.0000     2.3940 ca         1 8L7      -0.093000
     20 C5           0.0060     0.0010     2.4020 ca         1 8L7      -0.037800
     21 C6          -0.6920     0.0060     1.1930 ca         1 8L7      -0.106000
     22 C7          -0.7300     0.0010     3.6840 ce         1 8L7      -0.084400
     23 C8          -0.6260    -1.1820     4.6120 c3         1 8L7       0.062100
     24 C9          -1.4790     1.0410     4.0170 c2         1 8L7      -0.162000
     25 N3          -2.1060    -0.5190    -1.0890 ns         1 8L7      -0.227900
     26 N34         -7.6720    -3.6390    -4.1190 nu         1 8L7      -0.427600
     27 N4          -4.2090    -1.0910    -1.9250 ns         1 8L7      -0.053100
     28 O2          -2.6160    -0.2710    -3.2370 o          1 8L7      -0.693100
     29 O3          -8.5800    -4.3040    -2.0330 os         1 8L7      -0.397600
     30 O4          -8.7700    -5.9020    -4.8020 oh         1 8L7      -0.554800
     31 O5          -9.8070    -7.5630    -2.9570 oh         1 8L7      -0.554800
     32 Cl          -7.8060    -1.9160    -6.5390 cl         1 8L7      -0.034400
     33 H1          -0.8580     1.4020    -2.9310 hc         1 8L7       0.022867
     34 H2          -1.7340     1.9030    -1.4780 hc         1 8L7       0.022867
     35 H3           0.0330     1.9880    -1.5190 hc         1 8L7       0.022867
     36 H4           0.9260    -0.4350    -2.5750 hc         1 8L7       0.022867
     37 H5           0.1520    -1.8640    -1.8790 hc         1 8L7       0.022867
     38 H6          -0.6280    -0.9940    -3.2070 hc         1 8L7       0.022867
     39 H7          -4.3500     0.4310    -4.0830 ha         1 8L7       0.152000
     40 H8          -5.8500     0.0820    -6.0060 ha         1 8L7       0.111000
     41 H9           1.9230    -0.0000    -0.9400 ha         1 8L7       0.117000
     42 H10         -5.9690    -3.0490    -2.1850 ha         1 8L7       0.121000
     43 H11         -6.6320    -4.6710    -2.6150 h2         1 8L7       0.042700
     44 H12         -7.1120    -6.6240    -3.7690 h1         1 8L7       0.012700
     45 H13         -8.2270    -7.0620    -1.6920 h1         1 8L7       0.014700
     46 H14        -10.4240    -5.1150    -2.5330 h1         1 8L7       0.054700
     47 H15         -9.0820    -5.6470     0.1520 h1         1 8L7      -0.010300
     48 H16        -10.5800    -6.4300    -0.3700 h1         1 8L7      -0.010300
     49 H17          3.1640    -0.0000     1.1870 ha         1 8L7       0.104000
     50 H18          1.9500    -0.0020     3.3290 ha         1 8L7       0.108000
     51 H19         -1.7760     0.0060     1.1920 ha         1 8L7       0.112000
     52 H20         -0.1760    -2.0160     4.0850 hc         1 8L7       0.008033
     53 H21         -1.6150    -1.4620     4.9520 hc         1 8L7       0.008033
     54 H22         -0.0110    -0.9200     5.4640 hc         1 8L7       0.008033
     55 H23         -1.5530     1.8910     3.3500 ha         1 8L7       0.090000
     56 H24         -2.0180     1.0410     4.9570 ha         1 8L7       0.090000
     57 H25         -2.3740    -0.8570    -0.1860 hn         1 8L7       0.179500
     58 H26         -8.3670    -3.7080    -4.8360 hn         1 8L7       0.323800
     59 H27         -4.4860    -1.3960    -1.0130 hn         1 8L7       0.159500
     60 H28         -8.4650    -6.5280    -5.4380 ho         1 8L7       0.398000
     61 H29         -9.5450    -8.4350    -2.7120 ho         1 8L7       0.386000
     62 H30        -10.9720    -4.5220     0.8780 ho         1 8L7       0.387000
     63 O6         -10.7170    -4.4030    -0.0220 oh         1 8L7      -0.577800
@<TRIPOS>BOND
     1     1     3 1   
     2     1     9 ar  
     3     1    21 ar  
     4     2    25 1   
     5     2    27 1   
     6     2    28 2   
     7     3     4 1   
     8     3     5 1   
     9     3    25 1   
    10     4    33 1   
    11     4    34 1   
    12     4    35 1   
    13     5    36 1   
    14     5    37 1   
    15     5    38 1   
    16     6     7 ar  
    17     6    12 ar  
    18     6    27 1   
    19     7     8 ar  
    20     7    39 1   
    21     8    10 ar  
    22     8    40 1   
    23     9    18 ar  
    24     9    41 1   
    25    10    11 ar  
    26    10    32 1   
    27    11    12 ar  
    28    11    26 1   
    29    12    42 1   
    30    13    14 1   
    31    13    26 1   
    32    13    29 1   
    33    13    43 1   
    34    14    15 1   
    35    14    30 1   
    36    14    44 1   
    37    15    16 1   
    38    15    31 1   
    39    15    45 1   
    40    16    17 1   
    41    16    29 1   
    42    16    46 1   
    43    17    47 1   
    44    17    48 1   
    45    17    63 1   
    46    18    19 ar  
    47    18    49 1   
    48    19    20 ar  
    49    19    50 1   
    50    20    21 ar  
    51    20    22 1   
    52    21    51 1   
    53    22    23 1   
    54    22    24 2   
    55    23    52 1   
    56    23    53 1   
    57    23    54 1   
    58    24    55 1   
    59    24    56 1   
    60    25    57 1   
    61    26    58 1   
    62    27    59 1   
    63    30    60 1   
    64    31    61 1   
    65    62    63 1   
@<TRIPOS>SUBSTRUCTURE
     1 8L7         1 TEMP              0 ****  ****    0 ROOT
