@<TRIPOS>MOLECULE
molecule
   63    65     1     0     0
SMALL
bcc


@<TRIPOS>ATOM
      1 C1           0.0000     0.0000     0.0000 ca         1 8L7      -0.087300
      2 C10         -2.9640    -0.6140    -2.1240 c          1 8L7       0.784100
      3 C11         -0.7520    -0.0010    -1.3060 c3         1 8L7       0.192700
      4 C12         -0.8340     1.4270    -1.8480 c3         1 8L7      -0.102100
      5 C13         -0.0220    -0.8880    -2.3150 c3         1 8L7      -0.102100
      6 C17         -5.0650    -1.2870    -3.0150 ca         1 8L7       0.118600
      7 C18         -5.0340    -0.4090    -4.0900 ca         1 8L7      -0.173000
      8 C19         -5.8760    -0.6040    -5.1690 ca         1 8L7      -0.062000
      9 C2           1.3830     0.0000     0.0000 ca         1 8L7      -0.119000
     10 C20         -6.7510    -1.6740    -5.1810 ca         1 8L7      -0.064600
     11 C21         -6.7860    -2.5570    -4.1070 ca         1 8L7       0.231600
     12 C22         -5.9430    -2.3630    -3.0230 ca         1 8L7      -0.245000
     13 C24         -7.6250    -4.6350    -3.0470 c3         1 8L7       0.426300
     14 C25         -8.0000    -6.0250    -3.6040 c3         1 8L7       0.090100
     15 C26         -8.8570    -6.6210    -2.4550 c3         1 8L7       0.089100
     16 C27         -9.5600    -5.3480    -1.9220 c3         1 8L7       0.143100
     17 C29         -9.9700    -5.5400    -0.4600 c3         1 8L7       0.143400
     18 C3           2.0810     0.0000     1.1940 ca         1 8L7      -0.123000
     19 C4           1.4020     0.0000     2.3940 ca         1 8L7      -0.117000
     20 C5           0.0060     0.0010     2.4020 ca         1 8L7      -0.047800
     21 C6          -0.6920     0.0060     1.1930 ca         1 8L7      -0.123000
     22 C7          -0.7300     0.0010     3.6840 ce         1 8L7      -0.082400
     23 C8          -0.6260    -1.1820     4.6120 c3         1 8L7      -0.049900
     24 C9          -1.4790     1.0410     4.0170 c2         1 8L7      -0.210000
     25 N3          -2.1060    -0.5190    -1.0890 ns         1 8L7      -0.597900
     26 N34         -7.6720    -3.6390    -4.1190 nu         1 8L7      -0.811600
     27 N4          -4.2090    -1.0910    -1.9250 ns         1 8L7      -0.489100
     28 O2          -2.6160    -0.2710    -3.2370 o          1 8L7      -0.648100
     29 O3          -8.5800    -4.3040    -2.0330 os         1 8L7      -0.408600
     30 O4          -8.7700    -5.9020    -4.8020 oh         1 8L7      -0.573800
     31 O5          -9.8070    -7.5630    -2.9570 oh         1 8L7      -0.574800
     32 Cl          -7.8060    -1.9160    -6.5390 cl         1 8L7      -0.119400
     33 H1          -1.7230     1.9100    -1.4610 hc         1 8L7       0.051200
     34 H2          -0.8790     1.4010    -2.9300 hc         1 8L7       0.051200
     35 H3           0.0430     1.9820    -1.5370 hc         1 8L7       0.051200
     36 H4           0.9260    -0.4340    -2.5760 hc         1 8L7       0.051200
     37 H5          -0.6290    -0.9950    -3.2070 hc         1 8L7       0.051200
     38 H6           0.1530    -1.8640    -1.8780 hc         1 8L7       0.051200
     39 H7          -4.3500     0.4310    -4.0830 ha         1 8L7       0.172000
     40 H8          -5.8500     0.0820    -6.0060 ha         1 8L7       0.146000
     41 H9           1.9230    -0.0000    -0.9400 ha         1 8L7       0.138000
     42 H10         -5.9690    -3.0490    -2.1850 ha         1 8L7       0.136000
     43 H11         -6.6320    -4.6710    -2.6150 h2         1 8L7       0.079700
     44 H12         -7.1120    -6.6240    -3.7690 h1         1 8L7       0.050700
     45 H13         -8.2270    -7.0620    -1.6920 h1         1 8L7       0.047700
     46 H14        -10.4240    -5.1150    -2.5330 h1         1 8L7       0.094700
     47 H15         -9.0820    -5.6470     0.1520 h1         1 8L7       0.026700
     48 H16        -10.5800    -6.4300    -0.3700 h1         1 8L7       0.026700
     49 H17          3.1640    -0.0000     1.1870 ha         1 8L7       0.133000
     50 H18          1.9500    -0.0020     3.3290 ha         1 8L7       0.135000
     51 H19         -1.7760     0.0060     1.1920 ha         1 8L7       0.131000
     52 H20          0.1270    -0.9860     5.3650 hc         1 8L7       0.043700
     53 H21         -1.5820    -1.3490     5.0920 hc         1 8L7       0.043700
     54 H22         -0.3480    -2.0630     4.0450 hc         1 8L7       0.043700
     55 H23         -2.0180     1.0410     4.9570 ha         1 8L7       0.118500
     56 H24         -1.5530     1.8920     3.3510 ha         1 8L7       0.118500
     57 H25         -2.3750    -0.8550    -0.1850 hn         1 8L7       0.312500
     58 H26         -8.3690    -3.7070    -4.8350 hn         1 8L7       0.469800
     59 H27         -4.4860    -1.3960    -1.0130 hn         1 8L7       0.317500
     60 H28         -8.4590    -6.5210    -5.4410 ho         1 8L7       0.412000
     61 H29         -9.5450    -8.4350    -2.7120 ho         1 8L7       0.402000
     62 H30        -10.9460    -4.5080     0.8860 ho         1 8L7       0.401000
     63 O6         -10.7170    -4.4030    -0.0220 oh         1 8L7      -0.593800
@<TRIPOS>BOND
     1     5     3 1
     2    23    22 1
     3     3     1 1
     4     3     4 1
     5     3    25 1
     6    21     1 ar
     7    21    20 ar
     8    22    20 1
     9    22    24 2
    10     1     9 ar
    11    20    19 ar
    12     9    18 ar
    13    19    18 ar
    14    25     2 1
    15     2    27 1
    16     2    28 2
    17    27     6 1
    18     6     7 ar
    19     6    12 ar
    20     7     8 ar
    21    12    11 ar
    22     8    10 ar
    23    11    10 ar
    24    11    26 1
    25    10    32 1
    26    26    13 1
    27    30    14 1
    28    14    13 1
    29    14    15 1
    30    13    29 1
    31    31    15 1
    32    15    16 1
    33    29    16 1
    34    16    17 1
    35    17    63 1
    36     4    33 1
    37     4    34 1
    38     4    35 1
    39     5    36 1
    40     5    37 1
    41     5    38 1
    42     7    39 1
    43     8    40 1
    44     9    41 1
    45    12    42 1
    46    13    43 1
    47    14    44 1
    48    15    45 1
    49    16    46 1
    50    17    47 1
    51    17    48 1
    52    18    49 1
    53    19    50 1
    54    21    51 1
    55    23    52 1
    56    23    53 1
    57    23    54 1
    58    24    55 1
    59    24    56 1
    60    25    57 1
    61    26    58 1
    62    27    59 1
    63    30    60 1
    64    31    61 1
    65    63    62 1
@<TRIPOS>SUBSTRUCTURE
     1 8L7         1 TEMP              0 ****  ****    0 ROOT
