@<TRIPOS>MOLECULE
molecule
   47    49     1     0     0
SMALL
bcc


@<TRIPOS>ATOM
      1 C17          0.0000     0.0000     0.0000 ca         1 8L9       0.139600
      2 C18          1.3900     0.0000     0.0000 ca         1 8L9      -0.204000
      3 C20          2.0860     0.0000     1.1940 ca         1 8L9      -0.047000
      4 C22          1.4060    -0.0000     2.3960 ca         1 8L9      -0.308500
      5 C23          0.0090     0.0000     2.4070 ca         1 8L9       0.004400
      6 C24         -0.6930     0.0010     1.2020 ca         1 8L9      -0.122000
      7 C26         -0.7210     0.0010     3.6910 c          1 8L9       0.878200
      8 C01         -0.9090    -5.2480    -1.0150 ca         1 8L9      -0.067000
      9 C03         -1.9190    -4.5720    -1.6750 ca         1 8L9       0.013400
     10 C04         -1.7130    -3.2750    -2.1090 ca         1 8L9      -0.014000
     11 C06         -0.4980    -2.6550    -1.8840 ca         1 8L9      -0.291500
     12 C07          0.5120    -3.3300    -1.2250 ca         1 8L9      -0.014000
     13 C09          0.3070    -4.6280    -0.7890 ca         1 8L9       0.013400
     14 Cl1          1.5730    -5.4770     0.0400 cl         1 8L9      -0.095900
     15 S12         -0.2350    -1.0030    -2.4380 sy         1 8L9       1.427200
     16 N13         -0.6980     0.0060    -1.2100 nu         1 8L9      -0.765500
     17 O15          1.1700    -0.8450    -2.5780 o          1 8L9      -0.639800
     18 O16         -1.1520    -0.7860    -3.5020 o          1 8L9      -0.639800
     19 O27         -2.0620    -0.1280     3.7030 o          1 8L9      -0.813300
     20 O29         -0.1130     0.1170     4.7360 o          1 8L9      -0.813300
     21 S30          2.3000    -0.0020     3.9140 sy         1 8L9       1.447200
     22 O31          1.7730    -1.0710     4.6880 o          1 8L9      -0.637800
     23 O32          3.6740     0.1070     3.5700 o          1 8L9      -0.637800
     24 N33          1.9070     1.3930     4.7150 nu         1 8L9      -0.723500
     25 C35          2.3100     2.6300     4.2030 ca         1 8L9       0.194600
     26 C36          2.4480     2.8040     2.8330 ca         1 8L9      -0.142000
     27 C38          2.8470     4.0290     2.3300 ca         1 8L9      -0.021900
     28 C39          3.1090     5.0810     3.1910 ca         1 8L9       0.104900
     29 C40          2.9720     4.9080     4.5590 ca         1 8L9      -0.141000
     30 C42          2.5680     3.6880     5.0650 ca         1 8L9      -0.094300
     31 C43          2.4140     3.5040     6.5530 c3         1 8L9      -0.044800
     32 F1           3.4990     6.2760     2.6980 f          1 8L9      -0.143900
     33 Br1          3.0340     4.2670     0.4630 br         1 8L9      -0.092100
     34 H1           1.9300    -0.0000    -0.9390 ha         1 8L9       0.167000
     35 H2           3.1700    -0.0000     1.1880 ha         1 8L9       0.150000
     36 H3          -1.7760     0.0010     1.2040 ha         1 8L9       0.167000
     37 H4          -1.0710    -6.2640    -0.6750 ha         1 8L9       0.155000
     38 H5          -2.5030    -2.7450    -2.6260 ha         1 8L9       0.168500
     39 H6           1.4640    -2.8440    -1.0480 ha         1 8L9       0.168500
     40 H7          -1.4560     0.6450    -1.3460 hn         1 8L9       0.466800
     41 H9           1.4370     1.3470     5.5980 hn         1 8L9       0.492800
     42 H10          2.2420     1.9820     2.1580 ha         1 8L9       0.173000
     43 H11          3.1760     5.7330     5.2310 ha         1 8L9       0.139000
     44 H12          2.7170     4.4110     7.0630 hc         1 8L9       0.046367
     45 H13          1.3780     3.2890     6.7850 hc         1 8L9       0.046367
     46 H14          3.0360     2.6800     6.8810 hc         1 8L9       0.046367
     47 Cl2         -3.4450    -5.3500    -1.9590 cl         1 8L9      -0.095900
@<TRIPOS>BOND
     1    14    13 1
     2     8    13 ar
     3     8     9 ar
     4    13    12 ar
     5    47     9 1
     6     9    10 ar
     7    20     7 1
     8    12    11 ar
     9    10    11 ar
    10     7    19 1
    11     7     5 1
    12    11    15 1
    13    22    21 2
    14     6     5 ar
    15     6     1 ar
    16     5     4 ar
    17    16     1 1
    18    16    15 1
    19     1     2 ar
    20    15    17 2
    21    15    18 2
    22     4    21 1
    23     4     3 ar
    24    21    24 1
    25    21    23 2
    26     2     3 ar
    27    24    25 1
    28    25    26 ar
    29    25    30 ar
    30    31    30 1
    31    26    27 ar
    32    30    29 ar
    33    27    33 1
    34    27    28 ar
    35    29    28 ar
    36    28    32 1
    37     2    34 1
    38     3    35 1
    39     6    36 1
    40     8    37 1
    41    10    38 1
    42    12    39 1
    43    16    40 1
    44    24    41 1
    45    26    42 1
    46    29    43 1
    47    31    44 1
    48    31    45 1
    49    31    46 1
@<TRIPOS>SUBSTRUCTURE
     1 8L9         1 TEMP              0 ****  ****    0 ROOT
