@<TRIPOS>MOLECULE
8L9
   47    49     1     0     0
SMALL
bcc


@<TRIPOS>ATOM
      1 C17          0.0000     0.0000     0.0000 ca         1 8L9       0.052600
      2 C18          1.3900     0.0000     0.0000 ca         1 8L9      -0.207000
      3 C20          2.0860     0.0000     1.1940 ca         1 8L9      -0.015000
      4 C22          1.4060    -0.0000     2.3960 ca         1 8L9      -0.151500
      5 C23          0.0090     0.0000     2.4070 ca         1 8L9       0.006400
      6 C24         -0.6930     0.0010     1.2020 ca         1 8L9      -0.111000
      7 C26         -0.7210     0.0010     3.6910 c          1 8L9       0.966200
      8 C01         -0.9090    -5.2480    -1.0150 ca         1 8L9      -0.048000
      9 C03         -1.9190    -4.5720    -1.6750 ca         1 8L9      -0.058100
     10 C04         -1.7130    -3.2750    -2.1090 ca         1 8L9       0.014000
     11 C06         -0.4980    -2.6550    -1.8840 ca         1 8L9      -0.136500
     12 C07          0.5120    -3.3300    -1.2250 ca         1 8L9       0.014000
     13 C09          0.3070    -4.6280    -0.7890 ca         1 8L9      -0.058100
     14 Cl1          1.5730    -5.4770     0.0400 cl         1 8L9      -0.014900
     15 S12         -0.2350    -1.0030    -2.4380 sy         1 8L9       1.038200
     16 N13         -0.6980     0.0060    -1.2100 nu         1 8L9      -0.383500
     17 O15          1.1700    -0.8450    -2.5780 o          1 8L9      -0.595800
     18 O16         -1.1520    -0.7860    -3.5020 o          1 8L9      -0.595800
     19 O27         -2.0620    -0.1280     3.7030 o          1 8L9      -0.859800
     20 O29         -0.1130     0.1170     4.7360 o          1 8L9      -0.859800
     21 S30          2.3000    -0.0020     3.9140 sy         1 8L9       1.043200
     22 O31          1.7730    -1.0710     4.6880 o          1 8L9      -0.587800
     23 O32          3.6740     0.1070     3.5700 o          1 8L9      -0.587800
     24 N33          1.9070     1.3930     4.7150 nu         1 8L9      -0.353500
     25 C35          2.3100     2.6300     4.2030 ca         1 8L9       0.126600
     26 C36          2.4480     2.8040     2.8330 ca         1 8L9      -0.152000
     27 C38          2.8470     4.0290     2.3300 ca         1 8L9       0.046100
     28 C39          3.1090     5.0810     3.1910 ca         1 8L9       0.060900
     29 C40          2.9720     4.9080     4.5590 ca         1 8L9      -0.103000
     30 C42          2.5680     3.6880     5.0650 ca         1 8L9      -0.123300
     31 C43          2.4140     3.5040     6.5530 c3         1 8L9       0.069200
     32 F1           3.4990     6.2760     2.6980 f          1 8L9      -0.134900
     33 Br1          3.0340     4.2670     0.4630 br         1 8L9      -0.132100
     34 H1           1.9300    -0.0000    -0.9390 ha         1 8L9       0.159000
     35 H2           3.1700    -0.0000     1.1880 ha         1 8L9       0.125000
     36 H3          -1.7760     0.0010     1.2040 ha         1 8L9       0.140000
     37 H4          -1.0710    -6.2640    -0.6750 ha         1 8L9       0.120000
     38 H5          -2.5030    -2.7450    -2.6260 ha         1 8L9       0.136500
     39 H6           1.4640    -2.8440    -1.0480 ha         1 8L9       0.136500
     40 H7          -1.4560     0.6450    -1.3460 hn         1 8L9       0.347800
     41 H9           1.4370     1.3470     5.5980 hn         1 8L9       0.384800
     42 H10          2.2420     1.9820     2.1580 ha         1 8L9       0.160000
     43 H11          3.1760     5.7330     5.2310 ha         1 8L9       0.112000
     44 H12          2.7170     4.4110     7.0630 hc         1 8L9       0.008700
     45 H13          1.3780     3.2890     6.7850 hc         1 8L9       0.008700
     46 H14          3.0360     2.6800     6.8810 hc         1 8L9       0.008700
     47 Cl2         -3.4450    -5.3500    -1.9590 cl         1 8L9      -0.014900
@<TRIPOS>BOND
     1     1     2 ar  
     2     1     6 ar  
     3     1    16 1   
     4     2     3 ar  
     5     2    34 1   
     6     3     4 ar  
     7     3    35 1   
     8     4     5 ar  
     9     4    21 1   
    10     5     6 ar  
    11     5     7 1   
    12     6    36 1   
    13     7    19 1   
    14     7    20 1   
    15     8     9 ar  
    16     8    13 ar  
    17     8    37 1   
    18     9    10 ar  
    19     9    47 1   
    20    10    11 ar  
    21    10    38 1   
    22    11    12 ar  
    23    11    15 1   
    24    12    13 ar  
    25    12    39 1   
    26    13    14 1   
    27    15    16 1   
    28    15    17 2   
    29    15    18 2   
    30    16    40 1   
    31    21    22 2   
    32    21    23 2   
    33    21    24 1   
    34    24    25 1   
    35    24    41 1   
    36    25    26 ar  
    37    25    30 ar  
    38    26    27 ar  
    39    26    42 1   
    40    27    28 ar  
    41    27    33 1   
    42    28    29 ar  
    43    28    32 1   
    44    29    30 ar  
    45    29    43 1   
    46    30    31 1   
    47    31    44 1   
    48    31    45 1   
    49    31    46 1   
@<TRIPOS>SUBSTRUCTURE
     1 8L9         1 TEMP              0 ****  ****    0 ROOT
