@<TRIPOS>MOLECULE
8LA
   62    64     1     0     0
SMALL
bcc


@<TRIPOS>ATOM
      1 C1           0.0000     0.0000     0.0000 ca         1 8LA      -0.095300
      2 C2           1.3830     0.0000     0.0000 ca         1 8LA      -0.095000
      3 C3           2.0810     0.0000     1.1960 ca         1 8LA      -0.094000
      4 C4           1.4000    -0.0020     2.3950 ca         1 8LA      -0.092000
      5 C5           0.0050    -0.0020     2.4020 ca         1 8LA      -0.040800
      6 C6          -0.6930     0.0050     1.1930 ca         1 8LA      -0.104000
      7 C10         -2.9470    -0.6550    -2.1350 c          1 8LA       0.574100
      8 C11         -0.7520     0.0010    -1.3060 c3         1 8LA       0.093700
      9 C12         -0.8900     1.4370    -1.8140 c3         1 8LA      -0.026600
     10 C13          0.0140    -0.8330    -2.3350 c3         1 8LA      -0.026600
     11 C17         -5.0290    -1.3680    -3.0400 ca         1 8LA      -0.028400
     12 C18         -4.5070    -1.6830    -4.2880 ca         1 8LA      -0.138000
     13 C19         -5.3530    -1.8640    -5.3660 ca         1 8LA      -0.046000
     14 C20         -6.7200    -1.7310    -5.2050 ca         1 8LA      -0.090600
     15 C21         -7.2460    -1.4160    -3.9590 ca         1 8LA       0.176100
     16 C22         -6.4010    -1.2410    -2.8750 ca         1 8LA      -0.233000
     17 C24         -9.0620    -0.9600    -2.4930 c3         1 8LA       0.358900
     18 C25        -10.5950    -1.0970    -2.4390 c3         1 8LA       0.140100
     19 C26        -11.0930     0.3350    -2.1250 c3         1 8LA       0.136100
     20 C27         -9.8870     1.2030    -2.5650 c3         1 8LA       0.161100
     21 C29         -9.8870     2.5420    -1.8250 c3         1 8LA       0.224400
     22 C7          -0.7310     0.0020     3.6840 ce         1 8LA      -0.076400
     23 C8          -0.6190     1.1840     4.6130 c3         1 8LA       0.061100
     24 C9          -1.4910    -1.0320     4.0160 c2         1 8LA      -0.169000
     25 N3          -2.0830    -0.5750    -1.1030 ns         1 8LA      -0.225900
     26 N4          -4.1720    -1.1850    -1.9490 ns         1 8LA      -0.055100
     27 O1          -8.5900    -1.2850    -3.8020 os         1 8LA      -0.280900
     28 O2          -2.6220    -0.2490    -3.2330 o          1 8LA      -0.689100
     29 O3          -8.7440     0.4080    -2.1840 os         1 8LA      -0.400600
     30 O4         -11.1030    -1.5370    -3.7010 oh         1 8LA      -0.528800
     31 O5         -12.2570     0.6510    -2.8920 oh         1 8LA      -0.546800
     32 O6          -8.8360     3.3670    -2.3320 oh         1 8LA      -0.576800
     33 Cl          -7.7790    -1.9580    -6.5620 cl         1 8LA      -0.011400
     34 H1           1.9230    -0.0010    -0.9390 ha         1 8LA       0.118000
     35 H2           3.1640     0.0000     1.1890 ha         1 8LA       0.104000
     36 H3           1.9480    -0.0040     3.3300 ha         1 8LA       0.108000
     37 H4          -1.7770     0.0040     1.1920 ha         1 8LA       0.111000
     38 H5          -0.9130     1.4370    -2.8970 hc         1 8LA       0.022700
     39 H6          -1.8080     1.8690    -1.4340 hc         1 8LA       0.022700
     40 H7          -0.0460     2.0240    -1.4710 hc         1 8LA       0.022700
     41 H8           0.2230    -1.8130    -1.9230 hc         1 8LA       0.022700
     42 H9           0.9460    -0.3380    -2.5800 hc         1 8LA       0.022700
     43 H10         -0.5850    -0.9390    -3.2320 hc         1 8LA       0.022700
     44 H11         -3.4360    -1.7860    -4.4170 ha         1 8LA       0.145000
     45 H12         -4.9440    -2.1090    -6.3390 ha         1 8LA       0.114000
     46 H13         -6.8100    -0.9950    -1.9030 ha         1 8LA       0.129000
     47 H14         -8.6090    -1.6160    -1.7590 h2         1 8LA       0.024700
     48 H15        -10.8850    -1.7780    -1.6490 h1         1 8LA       0.007700
     49 H16        -11.2800     0.4500    -1.0640 h1         1 8LA       0.010700
     50 H17         -9.9020     1.3540    -3.6380 h1         1 8LA       0.062700
     51 H18        -10.8390     3.0370    -1.9750 h1         1 8LA      -0.009800
     52 H19         -9.7330     2.3690    -0.7670 h1         1 8LA      -0.009800
     53 H20         -0.3510     2.0660     4.0440 hc         1 8LA       0.009033
     54 H21          0.1430     0.9880     5.3560 hc         1 8LA       0.009033
     55 H22         -1.5700     1.3470     5.1050 hc         1 8LA       0.009033
     56 H23         -1.5720    -1.8820     3.3490 ha         1 8LA       0.088500
     57 H24         -2.0300    -1.0290     4.9560 ha         1 8LA       0.088500
     58 H25         -2.3370    -0.9470    -0.2090 hn         1 8LA       0.178500
     59 H26         -4.4540    -1.4850    -1.0360 hn         1 8LA       0.158500
     60 H27        -11.6320    -2.3070    -3.5750 ho         1 8LA       0.384000
     61 H28        -13.0100     0.6750    -2.3260 ho         1 8LA       0.383000
     62 H29         -8.8380     4.1930    -1.8780 ho         1 8LA       0.387000
@<TRIPOS>BOND
     1     1     2 ar  
     2     1     6 ar  
     3     1     8 1   
     4     2     3 ar  
     5     2    34 1   
     6     3     4 ar  
     7     3    35 1   
     8     4     5 ar  
     9     4    36 1   
    10     5     6 ar  
    11     5    22 1   
    12     6    37 1   
    13     7    25 1   
    14     7    26 1   
    15     7    28 2   
    16     8     9 1   
    17     8    10 1   
    18     8    25 1   
    19     9    38 1   
    20     9    39 1   
    21     9    40 1   
    22    10    41 1   
    23    10    42 1   
    24    10    43 1   
    25    11    12 ar  
    26    11    16 ar  
    27    11    26 1   
    28    12    13 ar  
    29    12    44 1   
    30    13    14 ar  
    31    13    45 1   
    32    14    15 ar  
    33    14    33 1   
    34    15    16 ar  
    35    15    27 1   
    36    16    46 1   
    37    17    18 1   
    38    17    27 1   
    39    17    29 1   
    40    17    47 1   
    41    18    19 1   
    42    18    30 1   
    43    18    48 1   
    44    19    20 1   
    45    19    31 1   
    46    19    49 1   
    47    20    21 1   
    48    20    29 1   
    49    20    50 1   
    50    21    32 1   
    51    21    51 1   
    52    21    52 1   
    53    22    23 1   
    54    22    24 2   
    55    23    53 1   
    56    23    54 1   
    57    23    55 1   
    58    24    56 1   
    59    24    57 1   
    60    25    58 1   
    61    26    59 1   
    62    30    60 1   
    63    31    61 1   
    64    32    62 1   
@<TRIPOS>SUBSTRUCTURE
     1 8LA         1 TEMP              0 ****  ****    0 ROOT
