@<TRIPOS>MOLECULE
8LC
   58    59     1     0     0
SMALL
bcc


@<TRIPOS>ATOM
      1 C2           0.0000     0.0000     0.0000 ca         1 8LC       0.174600
      2 C3           1.4000     0.0000     0.0000 ca         1 8LC      -0.173600
      3 C4           2.0930     0.0000     1.2140 ca         1 8LC      -0.083000
      4 C5           1.3970    -0.0010     2.4040 ca         1 8LC      -0.110000
      5 C6           0.0130    -0.0010     2.4050 ca         1 8LC      -0.108000
      6 C7          -0.6880     0.0000     1.2100 ca         1 8LC       0.060600
      7 C8           2.1420    -0.0000    -1.2760 c          1 8LC       0.595700
      8 O9           1.5360    -0.0000    -2.3310 o          1 8LC      -0.628100
      9 N10          3.4890    -0.0000    -1.2730 ns         1 8LC      -0.208900
     10 C11          4.2240    -0.0000    -2.5400 c3         1 8LC       0.052000
     11 C12          5.7280     0.0010    -2.2570 c3         1 8LC      -0.043400
     12 C13          6.4960     0.0000    -3.5800 c3         1 8LC      -0.022400
     13 C14          8.0000     0.0010    -3.2970 c3         1 8LC      -0.028400
     14 C15          8.7680     0.0010    -4.6200 c3         1 8LC      -0.028400
     15 C16         10.2720     0.0010    -4.3370 c3         1 8LC      -0.022400
     16 C17         11.0390     0.0010    -5.6600 c3         1 8LC      -0.043400
     17 C18         12.5440     0.0010    -5.3760 c3         1 8LC       0.052000
     18 N19         13.2790     0.0010    -6.6440 ns         1 8LC      -0.208900
     19 C20         14.6260     0.0010    -6.6400 c          1 8LC       0.595700
     20 C21         15.3680     0.0010    -7.9170 ca         1 8LC      -0.173600
     21 C22         16.7680     0.0010    -7.9170 ca         1 8LC       0.174600
     22 C23         17.4560     0.0010    -9.1270 ca         1 8LC       0.060600
     23 C24         16.7550     0.0010   -10.3210 ca         1 8LC      -0.108000
     24 C25         15.3700     0.0000   -10.3200 ca         1 8LC      -0.110000
     25 C26         14.6750    -0.0050    -9.1300 ca         1 8LC      -0.083000
     26 O27         15.2320     0.0010    -5.5850 o          1 8LC      -0.628100
     27 O29         -2.0480     0.0000     1.2180 oh         1 8LC      -0.494100
     28 O30         17.4510     0.0020    -6.7440 oh         1 8LC      -0.461100
     29 O31         18.8160     0.0020    -9.1350 oh         1 8LC      -0.494100
     30 O1          -0.6830     0.0060    -1.1720 oh         1 8LC      -0.461100
     31 H1          -1.1080    -0.8270    -1.2930 ho         1 8LC       0.411000
     32 H4           3.1760    -0.0000     1.2190 ha         1 8LC       0.103000
     33 H5           1.9370    -0.0010     3.3430 ha         1 8LC       0.107000
     34 H6          -0.5260    -0.0010     3.3450 ha         1 8LC       0.113000
     35 H10          3.9870    -0.0280    -0.4050 hn         1 8LC       0.178500
     36 H111         3.9640    -0.8850    -3.1090 h1         1 8LC       0.027450
     37 H112         3.9630     0.8840    -3.1090 h1         1 8LC       0.027450
     38 H121         5.9890    -0.8830    -1.6870 hc         1 8LC       0.016450
     39 H122         5.9880     0.8860    -1.6890 hc         1 8LC       0.016450
     40 H131         6.2350     0.8840    -4.1500 hc         1 8LC       0.018700
     41 H132         6.2360    -0.8850    -4.1480 hc         1 8LC       0.018700
     42 H141         8.2600     0.8860    -2.7280 hc         1 8LC       0.015700
     43 H142         8.2610    -0.8830    -2.7280 hc         1 8LC       0.015700
     44 H151         8.5070     0.8860    -5.1890 hc         1 8LC       0.015700
     45 H152         8.5070    -0.8840    -5.1890 hc         1 8LC       0.015700
     46 H161        10.5320     0.8860    -3.7680 hc         1 8LC       0.018700
     47 H162        10.5320    -0.8840    -3.7680 hc         1 8LC       0.018700
     48 H171        10.7790    -0.8840    -6.2290 hc         1 8LC       0.016450
     49 H172        10.7790     0.8860    -6.2290 hc         1 8LC       0.016450
     50 H181        12.8040     0.8860    -4.8080 h1         1 8LC       0.027450
     51 H182        12.8040    -0.8840    -4.8080 h1         1 8LC       0.027450
     52 H19         12.7810    -0.0260    -7.5110 hn         1 8LC       0.178500
     53 H26         13.5920    -0.0060    -9.1360 ha         1 8LC       0.103000
     54 H29         -2.3610     0.8540     1.4660 ho         1 8LC       0.409000
     55 H30         17.8730     0.8370    -6.6270 ho         1 8LC       0.411000
     56 H24         17.2930     0.0030   -11.2610 ha         1 8LC       0.113000
     57 H31         19.1300    -0.8530    -9.3810 ho         1 8LC       0.409000
     58 H25         14.8310    -0.0020   -11.2600 ha         1 8LC       0.107000
@<TRIPOS>BOND
     1     1     2 ar  
     2     1     6 ar  
     3     1    30 1   
     4     2     3 ar  
     5     2     7 1   
     6     3     4 ar  
     7     3    32 1   
     8     4     5 ar  
     9     4    33 1   
    10     5     6 ar  
    11     5    34 1   
    12     6    27 1   
    13     7     8 2   
    14     7     9 1   
    15     9    10 1   
    16     9    35 1   
    17    10    11 1   
    18    10    36 1   
    19    10    37 1   
    20    11    12 1   
    21    11    38 1   
    22    11    39 1   
    23    12    13 1   
    24    12    40 1   
    25    12    41 1   
    26    13    14 1   
    27    13    42 1   
    28    13    43 1   
    29    14    15 1   
    30    14    44 1   
    31    14    45 1   
    32    15    16 1   
    33    15    46 1   
    34    15    47 1   
    35    16    17 1   
    36    16    48 1   
    37    16    49 1   
    38    17    18 1   
    39    17    50 1   
    40    17    51 1   
    41    18    19 1   
    42    18    52 1   
    43    19    20 1   
    44    19    26 2   
    45    20    21 ar  
    46    20    25 ar  
    47    21    22 ar  
    48    21    28 1   
    49    22    23 ar  
    50    22    29 1   
    51    23    24 ar  
    52    23    56 1   
    53    24    25 ar  
    54    24    58 1   
    55    25    53 1   
    56    27    54 1   
    57    28    55 1   
    58    29    57 1   
    59    30    31 1   
@<TRIPOS>SUBSTRUCTURE
     1 8LC         1 TEMP              0 ****  ****    0 ROOT
