@<TRIPOS>MOLECULE
molecule
   58    59     1     0     0
SMALL
bcc


@<TRIPOS>ATOM
      1 C2           0.0000     0.0000     0.0000 ca         1 8LC       0.158100
      2 C3           1.4000     0.0000     0.0000 ca         1 8LC      -0.156600
      3 C4           2.0930     0.0000     1.2140 ca         1 8LC      -0.103000
      4 C5           1.3970    -0.0010     2.4040 ca         1 8LC      -0.137000
      5 C6           0.0130    -0.0010     2.4050 ca         1 8LC      -0.129000
      6 C7          -0.6880     0.0000     1.2100 ca         1 8LC       0.054600
      7 C8           2.1420    -0.0000    -1.2760 c          1 8LC       0.670700
      8 O9           1.5360    -0.0000    -2.3310 o          1 8LC      -0.583600
      9 N10          3.4890    -0.0000    -1.2730 ns         1 8LC      -0.588900
     10 C11          4.2240    -0.0000    -2.5400 c3         1 8LC       0.114000
     11 C12          5.7280     0.0010    -2.2570 c3         1 8LC      -0.101900
     12 C13          6.4960     0.0000    -3.5800 c3         1 8LC      -0.078400
     13 C14          8.0000     0.0010    -3.2970 c3         1 8LC      -0.081400
     14 C15          8.7680     0.0010    -4.6200 c3         1 8LC      -0.081400
     15 C16         10.2720     0.0010    -4.3370 c3         1 8LC      -0.078400
     16 C17         11.0390     0.0010    -5.6600 c3         1 8LC      -0.101900
     17 C18         12.5440     0.0010    -5.3760 c3         1 8LC       0.114000
     18 N19         13.2790     0.0010    -6.6440 ns         1 8LC      -0.588900
     19 C20         14.6260     0.0010    -6.6400 c          1 8LC       0.670700
     20 C21         15.3680     0.0010    -7.9170 ca         1 8LC      -0.156600
     21 C22         16.7680     0.0010    -7.9170 ca         1 8LC       0.158100
     22 C23         17.4560     0.0010    -9.1270 ca         1 8LC       0.054600
     23 C24         16.7550     0.0010   -10.3210 ca         1 8LC      -0.129000
     24 C25         15.3700     0.0000   -10.3200 ca         1 8LC      -0.137000
     25 C26         14.6750    -0.0050    -9.1300 ca         1 8LC      -0.103000
     26 O27         15.2320     0.0010    -5.5850 o          1 8LC      -0.583600
     27 O29         -2.0480     0.0000     1.2180 oh         1 8LC      -0.515100
     28 O30         17.4510     0.0020    -6.7440 oh         1 8LC      -0.483100
     29 O31         18.8160     0.0020    -9.1350 oh         1 8LC      -0.515100
     30 O1          -0.6830     0.0060    -1.1720 oh         1 8LC      -0.483100
     31 H1          -1.1080    -0.8270    -1.2930 ho         1 8LC       0.433000
     32 H4           3.1760    -0.0000     1.2190 ha         1 8LC       0.130000
     33 H5           1.9370    -0.0010     3.3430 ha         1 8LC       0.137000
     34 H6          -0.5260    -0.0010     3.3450 ha         1 8LC       0.143000
     35 H10          3.9870    -0.0280    -0.4050 hn         1 8LC       0.311500
     36 H111         3.9640    -0.8850    -3.1090 h1         1 8LC       0.054700
     37 H112         3.9630     0.8840    -3.1090 h1         1 8LC       0.054700
     38 H121         5.9890    -0.8830    -1.6870 hc         1 8LC       0.045200
     39 H122         5.9880     0.8860    -1.6890 hc         1 8LC       0.045200
     40 H131         6.2350     0.8840    -4.1500 hc         1 8LC       0.046700
     41 H132         6.2360    -0.8850    -4.1480 hc         1 8LC       0.046700
     42 H141         8.2600     0.8860    -2.7280 hc         1 8LC       0.042700
     43 H142         8.2610    -0.8830    -2.7280 hc         1 8LC       0.042700
     44 H151         8.5070     0.8860    -5.1890 hc         1 8LC       0.042700
     45 H152         8.5070    -0.8840    -5.1890 hc         1 8LC       0.042700
     46 H161        10.5320     0.8860    -3.7680 hc         1 8LC       0.046700
     47 H162        10.5320    -0.8840    -3.7680 hc         1 8LC       0.046700
     48 H171        10.7790    -0.8840    -6.2290 hc         1 8LC       0.045200
     49 H172        10.7790     0.8860    -6.2290 hc         1 8LC       0.045200
     50 H181        12.8040     0.8860    -4.8080 h1         1 8LC       0.054700
     51 H182        12.8040    -0.8840    -4.8080 h1         1 8LC       0.054700
     52 H19         12.7810    -0.0260    -7.5110 hn         1 8LC       0.311500
     53 H26         13.5920    -0.0060    -9.1360 ha         1 8LC       0.130000
     54 H29         -2.3610     0.8540     1.4660 ho         1 8LC       0.426500
     55 H30         17.8730     0.8370    -6.6270 ho         1 8LC       0.433000
     56 H24         17.2930     0.0030   -11.2610 ha         1 8LC       0.143000
     57 H31         19.1300    -0.8530    -9.3810 ho         1 8LC       0.426500
     58 H25         14.8310    -0.0020   -11.2600 ha         1 8LC       0.137000
@<TRIPOS>BOND
     1     1     2 ar  
     2     1     6 ar  
     3     1    30 1   
     4     2     3 ar  
     5     2     7 1   
     6     3     4 ar  
     7     4     5 ar  
     8     5     6 ar  
     9     6    27 1   
    10     7     8 2   
    11     7     9 1   
    12     9    10 1   
    13    10    11 1   
    14    11    12 1   
    15    12    13 1   
    16    13    14 1   
    17    14    15 1   
    18    15    16 1   
    19    16    17 1   
    20    17    18 1   
    21    18    19 1   
    22    19    20 1   
    23    19    26 2   
    24    20    21 ar  
    25    20    25 ar  
    26    21    22 ar  
    27    21    28 1   
    28    22    23 ar  
    29    22    29 1   
    30    23    24 ar  
    31    24    25 ar  
    32    30    31 1   
    33     3    32 1   
    34     4    33 1   
    35     5    34 1   
    36     9    35 1   
    37    10    36 1   
    38    10    37 1   
    39    11    38 1   
    40    11    39 1   
    41    12    40 1   
    42    12    41 1   
    43    13    42 1   
    44    13    43 1   
    45    14    44 1   
    46    14    45 1   
    47    15    46 1   
    48    15    47 1   
    49    16    48 1   
    50    16    49 1   
    51    17    50 1   
    52    17    51 1   
    53    18    52 1   
    54    25    53 1   
    55    27    54 1   
    56    28    55 1   
    57    23    56 1   
    58    29    57 1   
    59    24    58 1   
@<TRIPOS>SUBSTRUCTURE
     1 8LC         1 TEMP              0 ****  ****    0 ROOT
