@<TRIPOS>MOLECULE
molecule
    9     8     1     0     0
SMALL
bcc


@<TRIPOS>ATOM
      1 OAA          0.0000     0.0000     0.0000 oh         1 8LD      -0.388600
      2 CAC          1.3550     0.0000     0.0000 c1         1 8LD       0.028600
      3 CAE          2.5290     0.0000     0.0200 c1         1 8LD      -0.075900
      4 OAG          3.8830     0.0040     0.0210 os         1 8LD      -0.007200
      5 CAF          4.1760    -0.5540     1.4720 c1         1 8LD      -0.075900
      6 CAD          4.5550    -0.7430     2.4080 c1         1 8LD       0.028600
      7 OAB          4.9620    -0.9200     3.5730 oh         1 8LD      -0.388600
      8 H1          -0.2590    -0.0030    -0.9070 ho         1 8LD       0.440000
      9 H2           5.8860    -1.0760     3.6740 ho         1 8LD       0.440000
@<TRIPOS>BOND
     1     7     6 1   
     2     6     5 3   
     3     5     4 1   
     4     4     3 1   
     5     3     2 3   
     6     2     1 1   
     7     1     8 1   
     8     7     9 1   
@<TRIPOS>SUBSTRUCTURE
     1 8LD         1 TEMP              0 ****  ****    0 ROOT
