@<TRIPOS>MOLECULE
molecule
   44    47     1     0     0
SMALL
bcc


@<TRIPOS>ATOM
      1 CAQ          0.0000     0.0000     0.0000 ca         1 8LF      -0.019500
      2 CAR          1.3830     0.0000     0.0000 ca         1 8LF      -0.150500
      3 CAS          2.0740     0.0000     1.1960 ca         1 8LF      -0.020300
      4 CAT          3.5810    -0.0010     1.1970 c3         1 8LF      -0.057800
      5 CAU          1.3830     0.0010     2.3930 ca         1 8LF      -0.150500
      6 CAV          0.0010     0.0010     2.3940 ca         1 8LF      -0.019500
      7 CAP         -0.6910     0.0060     1.1970 ca         1 8LF      -0.321500
      8 SAM         -2.4530     0.0070     1.1980 sy         1 8LF       1.422200
      9 OAN         -2.8540     0.5580     2.4450 o          1 8LF      -0.628800
     10 OAO         -2.8550     0.5460    -0.0550 o          1 8LF      -0.628800
     11 NAL         -2.9440    -1.5740     1.2050 nu         1 8LF      -0.756500
     12 CAK         -2.5790    -2.4120     2.2580 ca         1 8LF       0.160600
     13 CAW         -2.4960    -1.9030     3.5520 ca         1 8LF      -0.145000
     14 CAX         -2.1340    -2.7350     4.6030 ca         1 8LF      -0.099600
     15 CAY         -2.0440    -2.2070     5.9800 c          1 8LF       0.585300
     16 OAZ         -2.0400    -1.0070     6.1790 o          1 8LF      -0.500100
     17 CBA         -1.9590    -3.1550     7.1120 ca         1 8LF      -0.134600
     18 CBB         -2.1610    -2.7190     8.4170 ca         1 8LF      -0.080000
     19 CBC         -2.0780    -3.6210     9.4640 ca         1 8LF      -0.117000
     20 CAA         -1.7960    -4.9530     9.2210 ca         1 8LF      -0.115000
     21 CAB         -1.5920    -5.4030     7.9280 ca         1 8LF      -0.083000
     22 CAC         -1.6740    -4.5100     6.8640 ca         1 8LF      -0.130600
     23 CAD         -1.4620    -4.9730     5.4750 c          1 8LF       0.582300
     24 OAE         -0.9750    -6.0670     5.2580 o          1 8LF      -0.490100
     25 CAF         -1.8480    -4.0950     4.3580 ca         1 8LF      -0.164600
     26 CAG         -1.9340    -4.5990     3.0570 ca         1 8LF       0.146100
     27 OAH         -1.6620    -5.9060     2.8130 oh         1 8LF      -0.479100
     28 CAI         -2.3040    -3.7540     2.0110 ca         1 8LF       0.049100
     29 OAJ         -2.3950    -4.2420     0.7460 oh         1 8LF      -0.495100
     30 H1          -0.5420     0.0020    -0.9380 ha         1 8LF       0.152000
     31 H2           1.9240    -0.0050    -0.9380 ha         1 8LF       0.139000
     32 H3           3.9430     0.9670     0.8720 hc         1 8LF       0.050367
     33 H4           3.9410    -0.2050     2.1980 hc         1 8LF       0.050367
     34 H5           3.9410    -0.7670     0.5200 hc         1 8LF       0.050367
     35 H6           1.9250    -0.0010     3.3310 ha         1 8LF       0.139000
     36 H7          -0.5400     0.0040     3.3320 ha         1 8LF       0.152000
     37 H8          -3.5420    -1.9150     0.4790 hn         1 8LF       0.469800
     38 H9          -2.7810    -0.8760     3.7480 ha         1 8LF       0.212000
     39 H10         -2.3830    -1.6770     8.6140 ha         1 8LF       0.157000
     40 H11         -2.2350    -3.2810    10.4810 ha         1 8LF       0.140000
     41 H12         -1.7330    -5.6490    10.0490 ha         1 8LF       0.139000
     42 H13         -1.3720    -6.4470     7.7440 ha         1 8LF       0.156000
     43 H14         -2.4700    -6.3820     2.7130 ho         1 8LF       0.422000
     44 H15         -3.2240    -4.6790     0.6360 ho         1 8LF       0.414000
@<TRIPOS>BOND
     1    10     8 2
     2     9     8 2
     3     8    11 1
     4     8     7 1
     5    11    12 1
     6     7     1 ar
     7     7     6 ar
     8     1     2 ar
     9    12    13 ar
    10    12    28 ar
    11    29    28 1
    12     6     5 ar
    13     2     3 ar
    14    13    14 ar
    15    28    26 ar
    16     5     3 ar
    17     3     4 1
    18    16    15 2
    19    14    15 1
    20    14    25 ar
    21    26    25 ar
    22    26    27 1
    23    15    17 1
    24    25    23 1
    25    17    18 ar
    26    17    22 ar
    27    23    22 1
    28    23    24 2
    29    18    19 ar
    30    22    21 ar
    31    19    20 ar
    32    21    20 ar
    33     1    30 1
    34     2    31 1
    35     4    32 1
    36     4    33 1
    37     4    34 1
    38     5    35 1
    39     6    36 1
    40    11    37 1
    41    13    38 1
    42    18    39 1
    43    19    40 1
    44    20    41 1
    45    21    42 1
    46    27    43 1
    47    29    44 1
@<TRIPOS>SUBSTRUCTURE
     1 8LF         1 TEMP              0 ****  ****    0 ROOT
