@<TRIPOS>MOLECULE
8LF
   44    47     1     0     0
SMALL
bcc


@<TRIPOS>ATOM
      1 CAQ          0.0000     0.0000     0.0000 ca         1 8LF       0.012000
      2 CAR          1.3830     0.0000     0.0000 ca         1 8LF      -0.133000
      3 CAS          2.0740     0.0000     1.1960 ca         1 8LF      -0.029300
      4 CAT          3.5810    -0.0010     1.1970 c3         1 8LF       0.055200
      5 CAU          1.3830     0.0010     2.3930 ca         1 8LF      -0.133000
      6 CAV          0.0010     0.0010     2.3940 ca         1 8LF       0.012000
      7 CAP         -0.6910     0.0060     1.1970 ca         1 8LF      -0.169500
      8 SAM         -2.4530     0.0070     1.1980 sy         1 8LF       1.042200
      9 OAN         -2.8540     0.5580     2.4450 o          1 8LF      -0.581800
     10 OAO         -2.8550     0.5460    -0.0550 o          1 8LF      -0.581800
     11 NAL         -2.9440    -1.5740     1.2050 nu         1 8LF      -0.381500
     12 CAK         -2.5790    -2.4120     2.2580 ca         1 8LF       0.072600
     13 CAW         -2.4960    -1.9030     3.5520 ca         1 8LF      -0.140000
     14 CAX         -2.1340    -2.7350     4.6030 ca         1 8LF      -0.102600
     15 CAY         -2.0440    -2.2070     5.9800 c          1 8LF       0.639300
     16 OAZ         -2.0400    -1.0070     6.1790 o          1 8LF      -0.536100
     17 CBA         -1.9590    -3.1550     7.1120 ca         1 8LF      -0.141600
     18 CBB         -2.1610    -2.7190     8.4170 ca         1 8LF      -0.050000
     19 CBC         -2.0780    -3.6210     9.4640 ca         1 8LF      -0.091000
     20 CAA         -1.7960    -4.9530     9.2210 ca         1 8LF      -0.089000
     21 CAB         -1.5920    -5.4030     7.9280 ca         1 8LF      -0.054000
     22 CAC         -1.6740    -4.5100     6.8640 ca         1 8LF      -0.136600
     23 CAD         -1.4620    -4.9730     5.4750 c          1 8LF       0.640300
     24 OAE         -0.9750    -6.0670     5.2580 o          1 8LF      -0.530100
     25 CAF         -1.8480    -4.0950     4.3580 ca         1 8LF      -0.185600
     26 CAG         -1.9340    -4.5990     3.0570 ca         1 8LF       0.164100
     27 OAH         -1.6620    -5.9060     2.8130 oh         1 8LF      -0.459100
     28 CAI         -2.3040    -3.7540     2.0110 ca         1 8LF       0.041100
     29 OAJ         -2.3950    -4.2420     0.7460 oh         1 8LF      -0.474100
     30 H1          -0.5420     0.0020    -0.9380 ha         1 8LF       0.125500
     31 H2           1.9240    -0.0050    -0.9380 ha         1 8LF       0.113500
     32 H3           3.9430     0.9670     0.8720 hc         1 8LF       0.012700
     33 H4           3.9410    -0.2050     2.1980 hc         1 8LF       0.012700
     34 H5           3.9410    -0.7670     0.5200 hc         1 8LF       0.012700
     35 H6           1.9250    -0.0010     3.3310 ha         1 8LF       0.113500
     36 H7          -0.5400     0.0040     3.3320 ha         1 8LF       0.125500
     37 H8          -3.5420    -1.9150     0.4790 hn         1 8LF       0.348800
     38 H9          -2.7810    -0.8760     3.7480 ha         1 8LF       0.197000
     39 H10         -2.3830    -1.6770     8.6140 ha         1 8LF       0.125000
     40 H11         -2.2350    -3.2810    10.4810 ha         1 8LF       0.107000
     41 H12         -1.7330    -5.6490    10.0490 ha         1 8LF       0.107000
     42 H13         -1.3720    -6.4470     7.7440 ha         1 8LF       0.124000
     43 H14         -2.4700    -6.3820     2.7130 ho         1 8LF       0.399000
     44 H15         -3.2240    -4.6790     0.6360 ho         1 8LF       0.395000
@<TRIPOS>BOND
     1     1     2 ar  
     2     1     7 ar  
     3     1    30 1   
     4     2     3 ar  
     5     2    31 1   
     6     3     4 1   
     7     3     5 ar  
     8     4    32 1   
     9     4    33 1   
    10     4    34 1   
    11     5     6 ar  
    12     5    35 1   
    13     6     7 ar  
    14     6    36 1   
    15     7     8 1   
    16     8     9 2   
    17     8    10 2   
    18     8    11 1   
    19    11    12 1   
    20    11    37 1   
    21    12    13 ar  
    22    12    28 ar  
    23    13    14 ar  
    24    13    38 1   
    25    14    15 1   
    26    14    25 ar  
    27    15    16 2   
    28    15    17 1   
    29    17    18 ar  
    30    17    22 ar  
    31    18    19 ar  
    32    18    39 1   
    33    19    20 ar  
    34    19    40 1   
    35    20    21 ar  
    36    20    41 1   
    37    21    22 ar  
    38    21    42 1   
    39    22    23 1   
    40    23    24 2   
    41    23    25 1   
    42    25    26 ar  
    43    26    27 1   
    44    26    28 ar  
    45    27    43 1   
    46    28    29 1   
    47    29    44 1   
@<TRIPOS>SUBSTRUCTURE
     1 8LF         1 TEMP              0 ****  ****    0 ROOT
