@<TRIPOS>MOLECULE
molecule
   13    13     1     0     0
SMALL
bcc


@<TRIPOS>ATOM
      1 C7           0.0000     0.0000     0.0000 ca         1 8LG      -0.267300
      2 C8           1.3810     0.0000     0.0000 ca         1 8LG       0.442200
      3 C3          -0.6800     0.0020     1.2100 ca         1 8LG      -0.109000
      4 C1           0.0590    -0.0030     2.3840 ca         1 8LG      -0.022200
      5 C2           1.4500    -0.0080     2.3060 ca         1 8LG       0.628600
      6 N5           2.0590     0.0000     1.1330 nb         1 8LG      -0.743000
      7 O4          -0.5640    -0.0010     3.5930 oh         1 8LG      -0.500100
      8 O6           2.1880    -0.0130     3.4460 oh         1 8LG      -0.605300
      9 H1          -0.5470     0.0020    -0.9350 ha         1 8LG       0.143000
     10 H3           1.9150     0.0020    -0.9420 h4         1 8LG       0.027100
     11 H4          -1.7630     0.0050     1.2370 ha         1 8LG       0.150000
     12 H5          -0.8930     0.8630     3.7770 ho         1 8LG       0.420000
     13 H2           2.8970    -0.6300     3.3590 ho         1 8LG       0.437000
@<TRIPOS>BOND
     1     2     6 ar  
     2     2     1 ar  
     3     6     5 ar  
     4     1     3 ar  
     5     5     8 1   
     6     5     4 ar  
     7     3     4 ar  
     8     4     7 1   
     9     1     9 1   
    10     2    10 1   
    11     3    11 1   
    12     7    12 1   
    13     8    13 1   
@<TRIPOS>SUBSTRUCTURE
     1 8LG         1 TEMP              0 ****  ****    0 ROOT
