@<TRIPOS>MOLECULE
8LG
   13    13     1     0     0
SMALL
bcc


@<TRIPOS>ATOM
      1 C7         -0.0010   -0.0530   -0.0790 ca        1 8LG     -0.242300
      2 C8          1.3990   -0.1070    0.0130 ca        1 8LG      0.392200
      3 C3         -0.7580    0.0420    1.0900 ca        1 8LG     -0.103000
      4 C1         -0.0860    0.0790    2.3180 ca        1 8LG      0.006800
      5 C2          1.3380    0.0180    2.3080 ca        1 8LG      0.549600
      6 N5          2.0770   -0.0740    1.1770 nb        1 8LG     -0.702000
      7 O4         -0.8280    0.1720    3.4670 oh        1 8LG     -0.487100
      8 O6          1.9430    0.0590    3.5490 oh        1 8LG     -0.638300
      9 H1         -0.4930   -0.0850   -1.0600 ha        1 8LG      0.148000
     10 H3          2.0280   -0.1820   -0.8920 h4        1 8LG      0.027100
     11 H4         -1.8560    0.0870    1.0670 ha        1 8LG      0.159000
     12 H5         -0.2140    0.1870    4.2180 ho        1 8LG      0.441000
     13 H2          2.9060    0.0120    3.4370 ho        1 8LG      0.450000
@<TRIPOS>BOND
     1    1    2 ar  
     2    1    3 ar  
     3    1    9 1   
     4    2    6 ar  
     5    2   10 1   
     6    3    4 ar  
     7    3   11 1   
     8    4    5 ar  
     9    4    7 1   
    10    5    6 ar  
    11    5    8 1   
    12    7   12 1   
    13    8   13 1   
@<TRIPOS>SUBSTRUCTURE
     1 8LG         1 TEMP              0 ****  ****    0 ROOT
