@<TRIPOS>MOLECULE
molecule
   26    26     1     0     0
SMALL
bcc


@<TRIPOS>ATOM
      1 S8           0.0000     0.0000     0.0000 sh         1 8LI      -0.308400
      2 N13          1.8820     0.0020    -2.4510 nc         1 8LI      -0.574300
      3 O14          4.0470     0.0030    -2.7120 os         1 8LI      -0.383700
      4 O17          3.6190     0.0060    -5.5230 o          1 8LI      -0.475100
      5 C52          1.9800    -1.3000    -7.3670 c3         1 8LI      -0.090600
      6 C53          1.3450     0.0070    -6.8890 c3         1 8LI      -0.070700
      7 C54         -0.0640     0.1330    -7.4730 c3         1 8LI      -0.090600
      8 C56          2.8480     0.0040    -3.3350 cd         1 8LI       0.512600
      9 C57          3.8250     0.0020    -1.3820 c          1 8LI       0.702800
     10 C58          2.4150     0.0020    -1.2180 cc         1 8LI      -0.060600
     11 C59          1.7110     0.0000     0.0000 c2         1 8LI       0.322700
     12 C60          1.2640     0.0050    -5.3600 c3         1 8LI      -0.151400
     13 OXT          2.3850     0.0000     1.1650 oh         1 8LI      -0.462100
     14 HS8         -0.4430     1.0800     0.6330 hs         1 8LI       0.225800
     15 H52          1.7670    -2.0870    -6.6540 hc         1 8LI       0.038867
     16 H52A         1.5720    -1.5670    -8.3340 hc         1 8LI       0.038867
     17 H52B         3.0520    -1.1700    -7.4510 hc         1 8LI       0.038867
     18 H53          1.9480     0.8450    -7.2180 hc         1 8LI       0.063700
     19 H54         -0.0040     0.1730    -8.5540 hc         1 8LI       0.038867
     20 H54A        -0.5290     1.0390    -7.1030 hc         1 8LI       0.038867
     21 H54B        -0.6560    -0.7240    -7.1750 hc         1 8LI       0.038867
     22 H60          0.7360    -0.8810    -5.0280 hc         1 8LI       0.081200
     23 H60A         0.7350     0.8880    -5.0250 hc         1 8LI       0.081200
     24 HXT          1.9480    -0.5660     1.7810 ho         1 8LI       0.448000
     25 O18          4.6650     0.0010    -0.5000 o          1 8LI      -0.521500
     26 C55          2.6570     0.0050    -4.7850 c          1 8LI       0.518800
@<TRIPOS>BOND
     1    11     1 1
     2     1    14 1
     3    10     2 1
     4     2     8 2
     5     9     3 1
     6     3     8 1
     7     4    26 2
     8    25     9 2
     9     5     6 1
    10     5    15 1
    11     5    16 1
    12     5    17 1
    13    12     6 1
    14     6     7 1
    15     6    18 1
    16     7    19 1
    17     7    20 1
    18     7    21 1
    19     8    26 1
    20    26    12 1
    21     9    10 1
    22    11    10 2
    23    13    11 1
    24    12    22 1
    25    12    23 1
    26    13    24 1
@<TRIPOS>SUBSTRUCTURE
     1 8LI         1 TEMP              0 ****  ****    0 ROOT
