@<TRIPOS>MOLECULE
molecule
   63    64     1     0     0
SMALL
bcc


@<TRIPOS>ATOM
      1 C10          0.0000     0.0000     0.0000 ca         1 8LL      -0.033000
      2 C13          1.8250     1.1890     3.2210 c3         1 8LL       0.157100
      3 C21          5.3070    -4.9760    -4.0030 c3         1 8LL       0.141400
      4 C24          5.9960    -6.1350     0.6280 c3         1 8LL      -0.080400
      5 C26          6.2560    -6.7570     3.0340 c3         1 8LL      -0.079400
      6 C01          2.1360     0.0000     1.2060 ca         1 8LL       0.108600
      7 C02          3.5140     0.0010     1.1610 ca         1 8LL      -0.172000
      8 C03          4.1860    -0.0000    -0.0570 ca         1 8LL      -0.091000
      9 C04          3.5040    -0.0010    -1.2360 ca         1 8LL      -0.138000
     10 C05          2.0990    -0.0010    -1.2340 ca         1 8LL       0.050000
     11 C06          1.4040     0.0000     0.0000 ca         1 8LL      -0.044000
     12 C07          1.3690    -0.0010    -2.4360 ca         1 8LL      -0.313500
     13 C08          0.0090    -0.0110    -2.3980 ca         1 8LL       0.002000
     14 C09         -0.6740    -0.0050    -1.1820 ca         1 8LL      -0.175000
     15 N11          1.4730     0.0010     2.4310 nh         1 8LL      -0.626000
     16 C12          1.7520    -1.2310     3.1810 c3         1 8LL       0.157100
     17 S14          2.2110    -0.0010    -3.9830 sy         1 8LL       1.428200
     18 O15          1.2080    -0.0700    -4.9870 o          1 8LL      -0.641800
     19 O16          3.1730     1.0430    -3.9170 o          1 8LL      -0.641800
     20 N17          3.0640    -1.4180    -4.0770 n7         1 8LL      -0.913100
     21 C18          2.3550    -2.6990    -4.1020 c3         1 8LL       0.239800
     22 C19          3.3030    -3.7970    -4.5880 c3         1 8LL       0.128400
     23 O20          4.3610    -3.9680    -3.6420 os         1 8LL      -0.420600
     24 C23          6.7300    -5.6470    -0.6230 c3         1 8LL       0.138400
     25 C25          6.9890    -6.2680     1.7840 c3         1 8LL      -0.081400
     26 H1          -0.5440     0.0050     0.9370 ha         1 8LL       0.155000
     27 H2           2.8060     1.0540     3.6590 h1         1 8LL       0.037533
     28 H3           1.0940     1.3290     4.0080 h1         1 8LL       0.037533
     29 H4           1.8330     2.0610     2.5770 h1         1 8LL       0.037533
     30 H5           4.8020    -5.9300    -4.0930 h1         1 8LL       0.033200
     31 H6           5.7650    -4.7190    -4.9500 h1         1 8LL       0.033200
     32 H8           5.5430    -7.0990     0.4290 hc         1 8LL       0.054200
     33 H9           5.2240    -5.4230     0.8960 hc         1 8LL       0.054200
     34 H10          5.4850    -6.0450     3.3020 hc         1 8LL       0.043200
     35 H11          5.8040    -7.7210     2.8340 hc         1 8LL       0.043200
     36 H13          4.0800     0.0010     2.0850 ha         1 8LL       0.132000
     37 H14          5.2690     0.0000    -0.0680 ha         1 8LL       0.133000
     38 H15          4.0450    -0.0020    -2.1750 ha         1 8LL       0.147000
     39 H16         -0.5510    -0.0150    -3.3250 ha         1 8LL       0.153000
     40 H17         -1.7580    -0.0130    -1.1790 ha         1 8LL       0.135000
     41 H18          1.0300    -1.3380     3.9820 h1         1 8LL       0.037533
     42 H19          2.7500    -1.1810     3.5990 h1         1 8LL       0.037533
     43 H20          1.6810    -2.0830     2.5160 h1         1 8LL       0.037533
     44 H21          1.5080    -2.6290    -4.7730 h1         1 8LL       0.058700
     45 H22          2.0070    -2.9380    -3.1040 h1         1 8LL       0.058700
     46 H23          2.7570    -4.7270    -4.6910 h1         1 8LL       0.032700
     47 H24          3.7200    -3.5150    -5.5480 h1         1 8LL       0.032700
     48 H25          7.1820    -4.6840    -0.4230 h1         1 8LL       0.021700
     49 H26          7.5000    -6.3600    -0.8900 h1         1 8LL       0.021700
     50 H27          7.7610    -6.9800     1.5160 hc         1 8LL       0.040700
     51 H28          7.4410    -5.3040     1.9840 hc         1 8LL       0.040700
     52 C22          6.3870    -5.0710    -2.9240 c3         1 8LL       0.142400
     53 O1           5.8010    -5.5230    -1.7010 os         1 8LL      -0.420600
     54 C27          7.2500    -6.8900     4.1900 c3         1 8LL      -0.084400
     55 C28          6.5160    -7.3790     5.4400 c3         1 8LL      -0.092100
     56 H7           4.0610    -1.3960    -4.1720 hn         1 8LL       0.462800
     57 H12          7.1520    -5.7710    -3.2390 h1         1 8LL       0.032200
     58 H29          6.8330    -4.0950    -2.7720 h1         1 8LL       0.032200
     59 H30          8.0210    -7.6020     3.9220 hc         1 8LL       0.039700
     60 H31          7.7020    -5.9260     4.3900 hc         1 8LL       0.039700
     61 H32          5.7490    -6.6630     5.7110 hc         1 8LL       0.033033
     62 H33          6.0580    -8.3390     5.2380 hc         1 8LL       0.033033
     63 H34          7.2210    -7.4790     6.2560 hc         1 8LL       0.033033
@<TRIPOS>BOND
     1     5    25 1   
     2     4    25 1   
     3     4    24 1   
     4    14     1 ar  
     5    14    13 ar  
     6     1    11 ar  
     7    16    15 1   
     8    13    12 ar  
     9    15     2 1   
    10    15     6 1   
    11    11     6 ar  
    12    11    10 ar  
    13    12    10 ar  
    14    12    17 1   
    15    20    17 1   
    16    20    21 1   
    17     6     7 ar  
    18    22    21 1   
    19    22    23 1   
    20    10     9 ar  
    21     3    23 1   
    22    19    17 2   
    23    17    18 2   
    24     7     8 ar  
    25     9     8 ar  
    26     1    26 1   
    27     2    27 1   
    28     2    28 1   
    29     2    29 1   
    30     3    30 1   
    31     3    31 1   
    32     4    32 1   
    33     4    33 1   
    34     5    34 1   
    35     5    35 1   
    36     7    36 1   
    37     8    37 1   
    38     9    38 1   
    39    13    39 1   
    40    14    40 1   
    41    16    41 1   
    42    16    42 1   
    43    16    43 1   
    44    21    44 1   
    45    21    45 1   
    46    22    46 1   
    47    22    47 1   
    48    24    48 1   
    49    24    49 1   
    50    25    50 1   
    51    25    51 1   
    52     3    52 1   
    53    52    53 1   
    54    53    24 1   
    55     5    54 1   
    56    54    55 1   
    57    20    56 1   
    58    52    57 1   
    59    52    58 1   
    60    54    59 1   
    61    54    60 1   
    62    55    61 1   
    63    55    62 1   
    64    55    63 1   
@<TRIPOS>SUBSTRUCTURE
     1 8LL         1 TEMP              0 ****  ****    0 ROOT
