@<TRIPOS>MOLECULE
8LL
   63    64     1     0     0
SMALL
bcc


@<TRIPOS>ATOM
      1 C10          0.0000     0.0000     0.0000 ca         1 8LL      -0.013000
      2 C13          1.8250     1.1890     3.2210 c3         1 8LL       0.179600
      3 C21          5.3070    -4.9760    -4.0030 c3         1 8LL       0.211400
      4 C24          5.9960    -6.1350     0.6280 c3         1 8LL      -0.035400
      5 C26          6.2560    -6.7570     3.0340 c3         1 8LL      -0.028400
      6 C01          2.1360     0.0000     1.2060 ca         1 8LL       0.034600
      7 C02          3.5140     0.0010     1.1610 ca         1 8LL      -0.143000
      8 C03          4.1860    -0.0000    -0.0570 ca         1 8LL      -0.065000
      9 C04          3.5040    -0.0010    -1.2360 ca         1 8LL      -0.117000
     10 C05          2.0990    -0.0010    -1.2340 ca         1 8LL       0.053000
     11 C06          1.4040     0.0000     0.0000 ca         1 8LL      -0.050000
     12 C07          1.3690    -0.0010    -2.4360 ca         1 8LL      -0.154500
     13 C08          0.0090    -0.0110    -2.3980 ca         1 8LL       0.032000
     14 C09         -0.6740    -0.0050    -1.1820 ca         1 8LL      -0.153000
     15 N11          1.4730     0.0010     2.4310 nh         1 8LL      -0.410000
     16 C12          1.7520    -1.2310     3.1810 c3         1 8LL       0.179600
     17 S14          2.2110    -0.0010    -3.9830 sy         1 8LL       1.046200
     18 O15          1.2080    -0.0700    -4.9870 o          1 8LL      -0.592300
     19 O16          3.1730     1.0430    -3.9170 o          1 8LL      -0.592300
     20 N17          3.0640    -1.4180    -4.0770 n7         1 8LL      -0.585100
     21 C18          2.3550    -2.6990    -4.1020 c3         1 8LL       0.224800
     22 C19          3.3030    -3.7970    -4.5880 c3         1 8LL       0.199400
     23 O20          4.3610    -3.9680    -3.6420 os         1 8LL      -0.409600
     24 C23          6.7300    -5.6470    -0.6230 c3         1 8LL       0.212400
     25 C25          6.9890    -6.2680     1.7840 c3         1 8LL      -0.025400
     26 H1          -0.5440     0.0050     0.9370 ha         1 8LL       0.121000
     27 H2           2.8060     1.0540     3.6590 h1         1 8LL       0.004867
     28 H3           1.0940     1.3290     4.0080 h1         1 8LL       0.004867
     29 H4           1.8330     2.0610     2.5770 h1         1 8LL       0.004867
     30 H5           4.8020    -5.9300    -4.0930 h1         1 8LL      -0.003800
     31 H6           5.7650    -4.7190    -4.9500 h1         1 8LL      -0.003800
     32 H8           5.5430    -7.0990     0.4290 hc         1 8LL       0.023700
     33 H9           5.2240    -5.4230     0.8960 hc         1 8LL       0.023700
     34 H10          5.4850    -6.0450     3.3020 hc         1 8LL       0.016200
     35 H11          5.8040    -7.7210     2.8340 hc         1 8LL       0.016200
     36 H13          4.0800     0.0010     2.0850 ha         1 8LL       0.110000
     37 H14          5.2690     0.0000    -0.0680 ha         1 8LL       0.102000
     38 H15          4.0450    -0.0020    -2.1750 ha         1 8LL       0.134000
     39 H16         -0.5510    -0.0150    -3.3250 ha         1 8LL       0.125000
     40 H17         -1.7580    -0.0130    -1.1790 ha         1 8LL       0.108000
     41 H18          1.0300    -1.3380     3.9820 h1         1 8LL       0.004867
     42 H19          2.7500    -1.1810     3.5990 h1         1 8LL       0.004867
     43 H20          1.6810    -2.0830     2.5160 h1         1 8LL       0.004867
     44 H21          1.5080    -2.6290    -4.7730 h1         1 8LL       0.022700
     45 H22          2.0070    -2.9380    -3.1040 h1         1 8LL       0.022700
     46 H23          2.7570    -4.7270    -4.6910 h1         1 8LL      -0.002800
     47 H24          3.7200    -3.5150    -5.5480 h1         1 8LL      -0.002800
     48 H25          7.1820    -4.6840    -0.4230 h1         1 8LL      -0.011800
     49 H26          7.5000    -6.3600    -0.8900 h1         1 8LL      -0.011800
     50 H27          7.7610    -6.9800     1.5160 hc         1 8LL       0.013700
     51 H28          7.4410    -5.3040     1.9840 hc         1 8LL       0.013700
     52 C22          6.3870    -5.0710    -2.9240 c3         1 8LL       0.210400
     53 O1           5.8010    -5.5230    -1.7010 os         1 8LL      -0.407600
     54 C27          7.2500    -6.8900     4.1900 c3         1 8LL      -0.028400
     55 C28          6.5160    -7.3790     5.4400 c3         1 8LL       0.006900
     56 H7           4.0610    -1.3960    -4.1720 hn         1 8LL       0.358800
     57 H12          7.1520    -5.7710    -3.2390 h1         1 8LL      -0.004300
     58 H29          6.8330    -4.0950    -2.7720 h1         1 8LL      -0.004300
     59 H30          8.0210    -7.6020     3.9220 hc         1 8LL       0.011700
     60 H31          7.7020    -5.9260     4.3900 hc         1 8LL       0.011700
     61 H32          5.7490    -6.6630     5.7110 hc         1 8LL       0.000700
     62 H33          6.0580    -8.3390     5.2380 hc         1 8LL       0.000700
     63 H34          7.2210    -7.4790     6.2560 hc         1 8LL       0.000700
@<TRIPOS>BOND
     1     1    11 ar  
     2     1    14 ar  
     3     1    26 1   
     4     2    15 1   
     5     2    27 1   
     6     2    28 1   
     7     2    29 1   
     8     3    23 1   
     9     3    30 1   
    10     3    31 1   
    11     3    52 1   
    12     4    24 1   
    13     4    25 1   
    14     4    32 1   
    15     4    33 1   
    16     5    25 1   
    17     5    34 1   
    18     5    35 1   
    19     5    54 1   
    20     6     7 ar  
    21     6    11 ar  
    22     6    15 1   
    23     7     8 ar  
    24     7    36 1   
    25     8     9 ar  
    26     8    37 1   
    27     9    10 ar  
    28     9    38 1   
    29    10    11 ar  
    30    10    12 ar  
    31    12    13 ar  
    32    12    17 1   
    33    13    14 ar  
    34    13    39 1   
    35    14    40 1   
    36    15    16 1   
    37    16    41 1   
    38    16    42 1   
    39    16    43 1   
    40    17    18 2   
    41    17    19 2   
    42    17    20 1   
    43    20    21 1   
    44    20    56 1   
    45    21    22 1   
    46    21    44 1   
    47    21    45 1   
    48    22    23 1   
    49    22    46 1   
    50    22    47 1   
    51    24    48 1   
    52    24    49 1   
    53    24    53 1   
    54    25    50 1   
    55    25    51 1   
    56    52    53 1   
    57    52    57 1   
    58    52    58 1   
    59    54    55 1   
    60    54    59 1   
    61    54    60 1   
    62    55    61 1   
    63    55    62 1   
    64    55    63 1   
@<TRIPOS>SUBSTRUCTURE
     1 8LL         1 TEMP              0 ****  ****    0 ROOT
