@<TRIPOS>MOLECULE
8LM
   58    60     1     0     0
SMALL
bcc


@<TRIPOS>ATOM
      1 C10          0.0000     0.0000     0.0000 c          1 8LM       0.561100
      2 C13         -2.2580    -0.0120    -1.0250 c3         1 8LM       0.015900
      3 C15          2.2290     1.4380     1.7800 c3         1 8LM       0.265300
      4 C17          3.2380     1.4710     2.8950 c2         1 8LM      -0.434300
      5 C20          3.7460     4.4890     4.6640 cc         1 8LM       0.255800
      6 C21          4.3570     5.8140     4.9360 ca         1 8LM      -0.050500
      7 C22          3.9570     6.5530     6.0470 ca         1 8LM      -0.103500
      8 C24          5.4980     8.2840     5.4450 ca         1 8LM      -0.135000
      9 C26          5.3380     6.3190     4.0860 ca         1 8LM      -0.103500
     10 C03          4.7620    -2.6280     0.4040 c3         1 8LM       0.152100
     11 O04          5.6070    -1.8330    -0.4300 oh         1 8LM      -0.599800
     12 C05          3.3720    -1.9930     0.4720 c3         1 8LM       0.188100
     13 O06          2.5250    -2.7880     1.3070 oh         1 8LM      -0.555800
     14 C07          3.4830    -0.5840     1.0560 c3         1 8LM       0.154100
     15 C08          2.0800     0.0000     1.2690 c3         1 8LM      -0.037300
     16 N09          1.3470     0.0000     0.0000 ns         1 8LM      -0.197900
     17 C11         -0.7540    -0.0060    -1.3040 c3         1 8LM      -0.126700
     18 C12         -0.3900     1.2430    -2.1090 c3         1 8LM       0.015900
     19 O14         -0.6070    -0.0010     1.0510 o          1 8LM      -0.606100
     20 O16          0.9680     1.9040     2.2630 oh         1 8LM      -0.543800
     21 N18          3.2650     2.5670     3.7410 na         1 8LM       0.744200
     22 C19          4.0490     3.6750     3.6160 cd         1 8LM      -0.374600
     23 C23          4.5290     7.7840     6.2960 ca         1 8LM      -0.109000
     24 C25          5.9030     7.5520     4.3440 ca         1 8LM      -0.109000
     25 N27          2.8050     3.8930     5.4120 nc         1 8LM      -0.288000
     26 N28          2.4970     2.7520     4.9010 nd         1 8LM      -0.362800
     27 C29          4.1080     0.4760     3.0970 ce         1 8LM       0.170900
     28 C30          5.0620     0.5930     4.2040 c          1 8LM       0.952800
     29 O31          6.0300    -0.3340     4.3600 o          1 8LM      -0.847300
     30 O32          4.9810     1.5250     4.9810 o          1 8LM      -0.847300
     31 O33          4.1460    -0.6370     2.3220 os         1 8LM      -0.232900
     32 H1          -2.5100    -0.8770    -0.4230 hc         1 8LM       0.006033
     33 H2          -2.7990    -0.0560    -1.9630 hc         1 8LM       0.006033
     34 H3          -2.5300     0.8910    -0.4930 hc         1 8LM       0.006033
     35 H4           2.5670     2.0730     0.9700 h1         1 8LM      -0.015300
     36 H6           3.1980     6.1620     6.7140 ha         1 8LM       0.115000
     37 H7           5.9440     9.2510     5.6440 ha         1 8LM       0.088000
     38 H8           5.6560     5.7460     3.2230 ha         1 8LM       0.115000
     39 H9           5.8530    -5.5560    -0.4610 ho         1 8LM       0.385000
     40 H12          5.1850    -2.6820     1.4000 h1         1 8LM       0.068700
     41 H13          6.5060    -2.0890    -0.3020 ho         1 8LM       0.411000
     42 H14          2.9500    -1.9400    -0.5240 h1         1 8LM      -0.001300
     43 H15          2.0110    -3.3690     0.7710 ho         1 8LM       0.378000
     44 H16          4.0420     0.0530     0.3800 h1         1 8LM       0.031700
     45 H17          1.5480    -0.5930     2.0030 h1         1 8LM       0.105700
     46 H18          1.8470     0.0360    -0.8660 hn         1 8LM       0.167500
     47 H19         -0.4880    -0.8910    -1.8710 hc         1 8LM       0.025700
     48 H20         -1.0830     1.3550    -2.9350 hc         1 8LM       0.006033
     49 H21          0.6170     1.1440    -2.4950 hc         1 8LM       0.006033
     50 H22         -0.4480     2.1150    -1.4690 hc         1 8LM       0.006033
     51 H23          0.8190     2.7830     1.9560 ho         1 8LM       0.375000
     52 H24          4.8970     3.7830     2.9510 h4         1 8LM       0.152000
     53 H25          4.2160     8.3610     7.1580 ha         1 8LM       0.090000
     54 H26          6.6640     7.9470     3.6820 ha         1 8LM       0.090000
     55 C02          4.6510    -4.0390    -0.1800 c3         1 8LM       0.182400
     56 H10          4.3120    -3.9790    -1.2070 h1         1 8LM      -0.011300
     57 O01          5.9290    -4.6740    -0.1360 oh         1 8LM      -0.588800
     58 H11          3.9410    -4.6150     0.4020 h1         1 8LM      -0.011300
@<TRIPOS>BOND
     1     1    16 1   
     2     1    17 1   
     3     1    19 2   
     4     2    17 1   
     5     2    32 1   
     6     2    33 1   
     7     2    34 1   
     8     3     4 1   
     9     3    15 1   
    10     3    20 1   
    11     3    35 1   
    12     4    21 1   
    13     4    27 2   
    14     5     6 1   
    15     5    22 2   
    16     5    25 1   
    17     6     7 ar  
    18     6     9 ar  
    19     7    23 ar  
    20     7    36 1   
    21     8    23 ar  
    22     8    24 ar  
    23     8    37 1   
    24     9    24 ar  
    25     9    38 1   
    26    10    11 1   
    27    10    12 1   
    28    10    40 1   
    29    10    55 1   
    30    11    41 1   
    31    12    13 1   
    32    12    14 1   
    33    12    42 1   
    34    13    43 1   
    35    14    15 1   
    36    14    31 1   
    37    14    44 1   
    38    15    16 1   
    39    15    45 1   
    40    16    46 1   
    41    17    18 1   
    42    17    47 1   
    43    18    48 1   
    44    18    49 1   
    45    18    50 1   
    46    20    51 1   
    47    21    22 1   
    48    21    26 1   
    49    22    52 1   
    50    23    53 1   
    51    24    54 1   
    52    25    26 2   
    53    27    28 1   
    54    27    31 1   
    55    28    29 1   
    56    28    30 1   
    57    39    57 1   
    58    55    56 1   
    59    55    57 1   
    60    55    58 1   
@<TRIPOS>SUBSTRUCTURE
     1 8LM         1 TEMP              0 ****  ****    0 ROOT
