@<TRIPOS>MOLECULE
8LN
   50    54     1     0     0
SMALL
bcc


@<TRIPOS>ATOM
      1 C1           0.0000     0.0000     0.0000 c3         1 8LN      -0.004400
      2 C2           3.5660     0.0000     0.9430 cc         1 8LN      -0.274300
      3 C3           2.5900     0.0000     0.0000 cd         1 8LN      -0.248700
      4 C4           1.3540    -0.0000     0.6610 cd         1 8LN       0.345600
      5 N1           1.5760     0.0000     1.9510 nc         1 8LN      -0.638800
      6 N2           2.9610     0.0000     2.1600 na         1 8LN       0.495400
      7 C5           3.6380    -0.0010     3.4590 c3         1 8LN      -0.034000
      8 C6           3.9840    -1.4390     3.8550 c3         1 8LN      -0.043400
      9 C7           4.7450    -1.4280     5.1830 c3         1 8LN       0.152300
     10 N3           5.9700    -0.6300     5.0410 n7         1 8LN      -0.581200
     11 C8           5.6590     0.7650     4.7080 c3         1 8LN       0.152300
     12 C9           4.9270     0.8210     3.3660 c3         1 8LN      -0.043400
     13 C10          4.0680    -0.0010    -1.9150 ca         1 8LN       0.703900
     14 N5           5.1010    -0.0010    -1.0840 nb         1 8LN      -0.704000
     15 C11          6.3460    -0.0010    -1.5410 ca         1 8LN       0.504200
     16 C12          6.5670    -0.0020    -2.9040 ca         1 8LN      -0.383200
     17 C13          5.4550    -0.0020    -3.7600 ca         1 8LN       0.608100
     18 N6           4.2310    -0.0060    -3.2290 nb         1 8LN      -0.678000
     19 C14          5.6360    -0.0020    -5.2220 cc         1 8LN      -0.534900
     20 C15          4.9420    -0.7630    -6.1390 cd         1 8LN       0.118600
     21 N7           5.3980    -0.4730    -7.3520 nd         1 8LN      -0.254600
     22 C16          6.3580     0.4420    -7.2610 cc         1 8LN      -0.242300
     23 N8           6.5290     0.7630    -5.9420 na         1 8LN       0.667700
     24 C17          7.4550     1.6900    -5.5690 cc         1 8LN      -0.310300
     25 C18          8.2200     2.3100    -6.4940 cd         1 8LN      -0.075000
     26 C19          8.0670     2.0050    -7.8550 cd         1 8LN      -0.132000
     27 C20          7.1480     1.0760    -8.2380 cc         1 8LN      -0.023000
     28 Cl           8.1810    -0.0020    -3.5430 cl         1 8LN       0.003600
     29 H11C        -0.7730    -0.0010     0.7590 hc         1 8LN       0.011033
     30 H12C        -0.1000    -0.8840    -0.6180 hc         1 8LN       0.011033
     31 H13C        -0.1010     0.8850    -0.6170 hc         1 8LN       0.011033
     32 H2           4.6340     0.0000     0.7590 h4         1 8LN       0.208000
     33 H4           1.9950     0.0020    -2.0090 hn         1 8LN       0.289800
     34 H5           2.9890     0.4330     4.2110 h1         1 8LN       0.052700
     35 H61C         4.6060    -1.8840     3.0870 hc         1 8LN       0.033200
     36 H62C         3.0720    -2.0120     3.9660 hc         1 8LN       0.033200
     37 H91C         5.5630     0.4080     2.5910 hc         1 8LN       0.033200
     38 H92C         4.6830     1.8490     3.1300 hc         1 8LN       0.033200
     39 H71C         5.0060    -2.4430     5.4560 h1         1 8LN       0.008950
     40 H72C         4.1190    -0.9910     5.9520 h1         1 8LN       0.008950
     41 H3           6.4890    -0.6610     5.8960 hn         1 8LN       0.254800
     42 H81C         5.0270     1.1870     5.4800 h1         1 8LN       0.008950
     43 H82C         6.5800     1.3320     4.6390 h1         1 8LN       0.008950
     44 H11          7.1810    -0.0010    -0.8510 h4         1 8LN      -0.010900
     45 H15          4.1590    -1.4760    -5.9090 h4         1 8LN       0.147000
     46 H20          7.0210     0.8320    -9.2860 ha         1 8LN       0.125000
     47 H17          7.5800     1.9320    -4.5210 h4         1 8LN       0.158000
     48 H18          8.9490     3.0480    -6.1850 ha         1 8LN       0.117000
     49 H19          8.6800     2.5020    -8.5970 ha         1 8LN       0.117000
     50 N4           2.7850    -0.0000    -1.3940 nu         1 8LN      -0.205300
@<TRIPOS>BOND
     1     1     4 1   
     2     1    29 1   
     3     1    30 1   
     4     1    31 1   
     5     2     3 2   
     6     2     6 1   
     7     2    32 1   
     8     3     4 1   
     9     3    50 1   
    10     4     5 2   
    11     5     6 1   
    12     6     7 1   
    13     7     8 1   
    14     7    12 1   
    15     7    34 1   
    16     8     9 1   
    17     8    35 1   
    18     8    36 1   
    19     9    10 1   
    20     9    39 1   
    21     9    40 1   
    22    10    11 1   
    23    10    41 1   
    24    11    12 1   
    25    11    42 1   
    26    11    43 1   
    27    12    37 1   
    28    12    38 1   
    29    13    14 ar  
    30    13    18 ar  
    31    13    50 1   
    32    14    15 ar  
    33    15    16 ar  
    34    15    44 1   
    35    16    17 ar  
    36    16    28 1   
    37    17    18 ar  
    38    17    19 1   
    39    19    20 2   
    40    19    23 1   
    41    20    21 1   
    42    20    45 1   
    43    21    22 2   
    44    22    23 1   
    45    22    27 1   
    46    23    24 1   
    47    24    25 2   
    48    24    47 1   
    49    25    26 1   
    50    25    48 1   
    51    26    27 2   
    52    26    49 1   
    53    27    46 1   
    54    33    50 1   
@<TRIPOS>SUBSTRUCTURE
     1 8LN         1 TEMP              0 ****  ****    0 ROOT
