@<TRIPOS>MOLECULE
molecule
   50    54     1     0     0
SMALL
bcc


@<TRIPOS>ATOM
      1 C1           0.0000     0.0000     0.0000 c3         1 8LN      -0.113400
      2 C2           3.5660     0.0000     0.9430 cc         1 8LN      -0.119300
      3 C3           2.5900     0.0000     0.0000 cd         1 8LN      -0.081700
      4 C4           1.3540    -0.0000     0.6610 cd         1 8LN       0.322600
      5 N1           1.5760     0.0000     1.9510 nc         1 8LN      -0.506800
      6 N2           2.9610     0.0000     2.1600 na         1 8LN       0.063400
      7 C5           3.6380    -0.0010     3.4590 c3         1 8LN       0.089000
      8 C6           3.9840    -1.4390     3.8550 c3         1 8LN      -0.094900
      9 C7           4.7450    -1.4280     5.1830 c3         1 8LN       0.159300
     10 N3           5.9700    -0.6300     5.0410 n7         1 8LN      -0.821200
     11 C8           5.6590     0.7650     4.7080 c3         1 8LN       0.159300
     12 C9           4.9270     0.8210     3.3660 c3         1 8LN      -0.094900
     13 C10          4.0680    -0.0010    -1.9150 ca         1 8LN       0.949900
     14 N5           5.1010    -0.0010    -1.0840 nb         1 8LN      -0.803000
     15 C11          6.3460    -0.0010    -1.5410 ca         1 8LN       0.515200
     16 C12          6.5670    -0.0020    -2.9040 ca         1 8LN      -0.303200
     17 C13          5.4550    -0.0020    -3.7600 ca         1 8LN       0.626100
     18 N6           4.2310    -0.0060    -3.2290 nb         1 8LN      -0.779000
     19 C14          5.6360    -0.0020    -5.2220 cc         1 8LN      -0.308900
     20 C15          4.9420    -0.7630    -6.1390 cd         1 8LN       0.105600
     21 N7           5.3980    -0.4730    -7.3520 nd         1 8LN      -0.322600
     22 C16          6.3580     0.4420    -7.2610 cc         1 8LN      -0.004300
     23 N8           6.5290     0.7630    -5.9420 na         1 8LN       0.071700
     24 C17          7.4550     1.6900    -5.5690 cc         1 8LN      -0.076300
     25 C18          8.2200     2.3100    -6.4940 cd         1 8LN      -0.165000
     26 C19          8.0670     2.0050    -7.8550 cd         1 8LN      -0.119000
     27 C20          7.1480     1.0760    -8.2380 cc         1 8LN      -0.093000
     28 Cl           8.1810    -0.0020    -3.5430 cl         1 8LN      -0.091400
     29 H11C        -0.7730    -0.0010     0.7590 hc         1 8LN       0.050033
     30 H12C        -0.1000    -0.8840    -0.6180 hc         1 8LN       0.050033
     31 H13C        -0.1010     0.8850    -0.6170 hc         1 8LN       0.050033
     32 H2           4.6340     0.0000     0.7590 h4         1 8LN       0.221000
     33 H4           1.9950     0.0020    -2.0090 hn         1 8LN       0.472800
     34 H5           2.9890     0.4330     4.2110 h1         1 8LN       0.078700
     35 H61C         4.6060    -1.8840     3.0870 hc         1 8LN       0.062950
     36 H62C         3.0720    -2.0120     3.9660 hc         1 8LN       0.062950
     37 H91C         5.5630     0.4080     2.5910 hc         1 8LN       0.062950
     38 H92C         4.6830     1.8490     3.1300 hc         1 8LN       0.062950
     39 H71C         5.0060    -2.4430     5.4560 h1         1 8LN       0.036450
     40 H72C         4.1190    -0.9910     5.9520 h1         1 8LN       0.036450
     41 H3           6.4890    -0.6610     5.8960 hn         1 8LN       0.357800
     42 H81C         5.0270     1.1870     5.4800 h1         1 8LN       0.036450
     43 H82C         6.5800     1.3320     4.6390 h1         1 8LN       0.036450
     44 H11          7.1810    -0.0010    -0.8510 h4         1 8LN       0.039100
     45 H15          4.1590    -1.4760    -5.9090 h4         1 8LN       0.195000
     46 H20          7.0210     0.8320    -9.2860 ha         1 8LN       0.163000
     47 H17          7.5800     1.9320    -4.5210 h4         1 8LN       0.176000
     48 H18          8.9490     3.0480    -6.1850 ha         1 8LN       0.151000
     49 H19          8.6800     2.5020    -8.5970 ha         1 8LN       0.144000
     50 N4           2.7850    -0.0000    -1.3940 nu         1 8LN      -0.708300
@<TRIPOS>BOND
     1     1     4 1
     2     2     3 2
     3     2     6 1
     4     3     4 1
     5     3    50 1
     6     4     5 2
     7     5     6 1
     8     6     7 1
     9     7     8 1
    10     7    12 1
    11     8     9 1
    12     9    10 1
    13    10    11 1
    14    11    12 1
    15    50    13 1
    16    13    14 ar
    17    13    18 ar
    18    14    15 ar
    19    15    16 ar
    20    16    17 ar
    21    16    28 1
    22    17    18 ar
    23    17    19 1
    24    19    20 2
    25    19    23 1
    26    20    21 1
    27    21    22 2
    28    22    23 1
    29    22    27 1
    30    23    24 1
    31    24    25 2
    32    25    26 1
    33    26    27 2
    34     1    29 1
    35     1    30 1
    36     1    31 1
    37     2    32 1
    38    50    33 1
    39     7    34 1
    40     8    35 1
    41     8    36 1
    42    12    37 1
    43    12    38 1
    44     9    39 1
    45     9    40 1
    46    10    41 1
    47    11    42 1
    48    11    43 1
    49    15    44 1
    50    20    45 1
    51    27    46 1
    52    24    47 1
    53    25    48 1
    54    26    49 1
@<TRIPOS>SUBSTRUCTURE
     1 8LN         1 TEMP              0 ****  ****    0 ROOT
