@<TRIPOS>MOLECULE
molecule
   50    50     1     0     0
SMALL
bcc


@<TRIPOS>ATOM
      1 C1           0.0000     0.0000     0.0000 c3         1 8LO      -0.083600
      2 CG2          1.5300     0.0000     0.0000 c3         1 8LO      -0.046100
      3 CB           2.0330     0.0000     1.4210 ca         1 8LO      -0.079800
      4 CG1          2.3620     1.1910     2.0370 ca         1 8LO      -0.120500
      5 CD1          2.8230     1.1920     3.3410 ca         1 8LO      -0.134000
      6 C6           2.9550     0.0020     4.0310 ca         1 8LO      -0.120500
      7 C            2.6280    -1.1930     3.4210 ca         1 8LO      -0.079800
      8 C8           2.7730    -2.4900     4.1740 c3         1 8LO      -0.046100
      9 C9           4.1730    -2.5710     4.7860 c3         1 8LO      -0.083600
     10 CA           2.1600    -1.1970     2.1130 ca         1 8LO       0.068600
     11 N            1.8220    -2.4050     1.4930 ns         1 8LO      -0.488100
     12 C11          2.6500    -3.4650     1.5860 c          1 8LO       0.780100
     13 O1           3.7050    -3.3620     2.1820 o          1 8LO      -0.644100
     14 N2           2.3090    -4.6380     1.0160 ns         1 8LO      -0.587900
     15 C12          3.1550    -5.8180     1.2090 c3         1 8LO       0.074700
     16 C13          4.3390    -5.7610     0.2400 c3         1 8LO      -0.093400
     17 C14          3.8220    -5.5770    -1.1870 c3         1 8LO      -0.079700
     18 C15          5.0000    -5.2990    -2.1240 c3         1 8LO      -0.100100
     19 C16          3.1010    -6.8490    -1.6370 c3         1 8LO      -0.100100
     20 C17          2.3490    -7.0630     0.9420 c          1 8LO       0.672100
     21 O2           1.1810    -6.9730     0.6280 o          1 8LO      -0.587100
     22 N3           2.9260    -8.2760     1.0530 ns         1 8LO      -0.467400
     23 O3           2.1680    -9.4460     0.8030 oh         1 8LO      -0.358100
     24 H1          -0.3610    -0.7820    -0.6570 hc         1 8LO       0.034200
     25 H2          -0.3610    -0.1780     1.0060 hc         1 8LO       0.034200
     26 H3          -0.3610     0.9600    -0.3480 hc         1 8LO       0.034200
     27 H4           1.8910     0.8850    -0.5110 hc         1 8LO       0.053450
     28 H5           1.8910    -0.8840    -0.5110 hc         1 8LO       0.053450
     29 H6           2.2590     2.1250     1.4980 ha         1 8LO       0.133000
     30 H7           3.0800     2.1280     3.8230 ha         1 8LO       0.129000
     31 H8           3.3160     0.0060     5.0530 ha         1 8LO       0.133000
     32 H9           2.6270    -3.3200     3.4940 hc         1 8LO       0.053450
     33 H10          2.0310    -2.5340     4.9620 hc         1 8LO       0.053450
     34 H11          4.8910    -2.1280     4.1070 hc         1 8LO       0.034200
     35 H12          4.4320    -3.6090     4.9580 hc         1 8LO       0.034200
     36 H13          4.1880    -2.0350     5.7270 hc         1 8LO       0.034200
     37 H14          0.9710    -2.4790     0.9720 hn         1 8LO       0.323500
     38 H15          1.4620    -4.7110     0.4890 hn         1 8LO       0.334500
     39 H16          3.5230    -5.8370     2.2280 h1         1 8LO       0.088700
     40 H17          4.9020    -6.6840     0.3040 hc         1 8LO       0.059700
     41 H18          4.9800    -4.9280     0.5030 hc         1 8LO       0.059700
     42 H19          3.1330    -4.7420    -1.2170 hc         1 8LO       0.057700
     43 H20          5.6620    -6.1560    -2.1350 hc         1 8LO       0.039867
     44 H21          4.6290    -5.1170    -3.1250 hc         1 8LO       0.039867
     45 H22          5.5410    -4.4280    -1.7750 hc         1 8LO       0.039867
     46 H23          3.5730    -7.7120    -1.1830 hc         1 8LO       0.039867
     47 H24          2.0630    -6.8030    -1.3300 hc         1 8LO       0.039867
     48 H25          3.1550    -6.9330    -2.7150 hc         1 8LO       0.039867
     49 H26          3.8840    -8.3510     1.3320 hn         1 8LO       0.326500
     50 H27          2.4970   -10.1540     1.3320 ho         1 8LO       0.399000
@<TRIPOS>BOND
     1     1     2 1   
     2    23    22 1   
     3     2     3 1   
     4    22    20 1   
     5    21    20 2   
     6    20    15 1   
     7     3     4 ar  
     8     3    10 ar  
     9     4     5 ar  
    10    13    12 2   
    11    12    11 1   
    12    12    14 1   
    13    11    10 1   
    14    15    14 1   
    15    15    16 1   
    16    10     7 ar  
    17     5     6 ar  
    18    16    17 1   
    19     6     7 ar  
    20     7     8 1   
    21    17    18 1   
    22    17    19 1   
    23     8     9 1   
    24     1    24 1   
    25     1    25 1   
    26     1    26 1   
    27     2    27 1   
    28     2    28 1   
    29     4    29 1   
    30     5    30 1   
    31     6    31 1   
    32     8    32 1   
    33     8    33 1   
    34     9    34 1   
    35     9    35 1   
    36     9    36 1   
    37    11    37 1   
    38    14    38 1   
    39    15    39 1   
    40    16    40 1   
    41    16    41 1   
    42    17    42 1   
    43    18    43 1   
    44    18    44 1   
    45    18    45 1   
    46    19    46 1   
    47    19    47 1   
    48    19    48 1   
    49    22    49 1   
    50    23    50 1   
@<TRIPOS>SUBSTRUCTURE
     1 8LO         1 TEMP              0 ****  ****    0 ROOT
