@<TRIPOS>MOLECULE
8LO
   50    50     1     0     0
SMALL
bcc


@<TRIPOS>ATOM
      1 C1           0.0000     0.0000     0.0000 c3         1 8LO       0.011400
      2 CG2          1.5300     0.0000     0.0000 c3         1 8LO      -0.000100
      3 CB           2.0330     0.0000     1.4210 ca         1 8LO      -0.077300
      4 CG1          2.3620     1.1910     2.0370 ca         1 8LO      -0.097000
      5 CD1          2.8230     1.1920     3.3410 ca         1 8LO      -0.103000
      6 C6           2.9550     0.0020     4.0310 ca         1 8LO      -0.097000
      7 C            2.6280    -1.1930     3.4210 ca         1 8LO      -0.077300
      8 C8           2.7730    -2.4900     4.1740 c3         1 8LO      -0.000100
      9 C9           4.1730    -2.5710     4.7860 c3         1 8LO       0.011400
     10 CA           2.1600    -1.1970     2.1130 ca         1 8LO      -0.074400
     11 N            1.8220    -2.4050     1.4930 ns         1 8LO      -0.052100
     12 C11          2.6500    -3.4650     1.5860 c          1 8LO       0.560100
     13 O1           3.7050    -3.3620     2.1820 o          1 8LO      -0.691100
     14 N2           2.3090    -4.6380     1.0160 ns         1 8LO      -0.200900
     15 C12          3.1550    -5.8180     1.2090 c3         1 8LO      -0.028300
     16 C13          4.3390    -5.7610     0.2400 c3         1 8LO      -0.047400
     17 C14          3.8220    -5.5770    -1.1870 c3         1 8LO      -0.057700
     18 C15          5.0000    -5.2990    -2.1240 c3         1 8LO      -0.019100
     19 C16          3.1010    -6.8490    -1.6370 c3         1 8LO      -0.019100
     20 C17          2.3490    -7.0630     0.9420 c          1 8LO       0.575100
     21 O2           1.1810    -6.9730     0.6280 o          1 8LO      -0.632100
     22 N3           2.9260    -8.2760     1.0530 ns         1 8LO      -0.047400
     23 O3           2.1680    -9.4460     0.8030 oh         1 8LO      -0.436100
     24 H1          -0.3610    -0.7820    -0.6570 hc         1 8LO       0.002700
     25 H2          -0.3610    -0.1780     1.0060 hc         1 8LO       0.002700
     26 H3          -0.3610     0.9600    -0.3480 hc         1 8LO       0.002700
     27 H4           1.8910     0.8850    -0.5110 hc         1 8LO       0.028700
     28 H5           1.8910    -0.8840    -0.5110 hc         1 8LO       0.028700
     29 H6           2.2590     2.1250     1.4980 ha         1 8LO       0.107500
     30 H7           3.0800     2.1280     3.8230 ha         1 8LO       0.101000
     31 H8           3.3160     0.0060     5.0530 ha         1 8LO       0.107500
     32 H9           2.6270    -3.3200     3.4940 hc         1 8LO       0.028700
     33 H10          2.0310    -2.5340     4.9620 hc         1 8LO       0.028700
     34 H11          4.8910    -2.1280     4.1070 hc         1 8LO       0.002700
     35 H12          4.4320    -3.6090     4.9580 hc         1 8LO       0.002700
     36 H13          4.1880    -2.0350     5.7270 hc         1 8LO       0.002700
     37 H14          0.9710    -2.4790     0.9720 hn         1 8LO       0.169500
     38 H15          1.4620    -4.7110     0.4890 hn         1 8LO       0.197500
     39 H16          3.5230    -5.8370     2.2280 h1         1 8LO       0.058700
     40 H17          4.9020    -6.6840     0.3040 hc         1 8LO       0.034200
     41 H18          4.9800    -4.9280     0.5030 hc         1 8LO       0.034200
     42 H19          3.1330    -4.7420    -1.2170 hc         1 8LO       0.030700
     43 H20          5.6620    -6.1560    -2.1350 hc         1 8LO       0.011533
     44 H21          4.6290    -5.1170    -3.1250 hc         1 8LO       0.011533
     45 H22          5.5410    -4.4280    -1.7750 hc         1 8LO       0.011533
     46 H23          3.5730    -7.7120    -1.1830 hc         1 8LO       0.011533
     47 H24          2.0630    -6.8030    -1.3300 hc         1 8LO       0.011533
     48 H25          3.1550    -6.9330    -2.7150 hc         1 8LO       0.011533
     49 H26          3.8840    -8.3510     1.3320 hn         1 8LO       0.165500
     50 H27          2.4970   -10.1540     1.3320 ho         1 8LO       0.393000
@<TRIPOS>BOND
     1     1     2 1   
     2     1    24 1   
     3     1    25 1   
     4     1    26 1   
     5     2     3 1   
     6     2    27 1   
     7     2    28 1   
     8     3     4 ar  
     9     3    10 ar  
    10     4     5 ar  
    11     4    29 1   
    12     5     6 ar  
    13     5    30 1   
    14     6     7 ar  
    15     6    31 1   
    16     7     8 1   
    17     7    10 ar  
    18     8     9 1   
    19     8    32 1   
    20     8    33 1   
    21     9    34 1   
    22     9    35 1   
    23     9    36 1   
    24    10    11 1   
    25    11    12 1   
    26    11    37 1   
    27    12    13 2   
    28    12    14 1   
    29    14    15 1   
    30    14    38 1   
    31    15    16 1   
    32    15    20 1   
    33    15    39 1   
    34    16    17 1   
    35    16    40 1   
    36    16    41 1   
    37    17    18 1   
    38    17    19 1   
    39    17    42 1   
    40    18    43 1   
    41    18    44 1   
    42    18    45 1   
    43    19    46 1   
    44    19    47 1   
    45    19    48 1   
    46    20    21 2   
    47    20    22 1   
    48    22    23 1   
    49    22    49 1   
    50    23    50 1   
@<TRIPOS>SUBSTRUCTURE
     1 8LO         1 TEMP              0 ****  ****    0 ROOT
