@<TRIPOS>MOLECULE
molecule
   56    60     1     0     0
SMALL
bcc


@<TRIPOS>ATOM
      1 N1           0.0000     0.0000     0.0000 ns         1 8LP      -0.463100
      2 N3           4.1300     0.0010    -0.0700 n          1 8LP      -0.319000
      3 C4           6.7630     3.3760    -1.3360 ca         1 8LP      -0.131000
      4 C5          -3.3200    -5.6130    -8.6730 ca         1 8LP      -0.132000
      5 C6          -5.2700    -5.5890    -7.2830 ca         1 8LP      -0.132000
      6 C7          -2.2370     1.2020    -5.1650 ca         1 8LP      -0.087000
      7 C8           6.3580     2.0750     1.0690 ca         1 8LP      -0.106000
      8 C10         -3.0040    -4.3340    -8.2510 ca         1 8LP      -0.102500
      9 C13         -2.6390     0.0060    -5.7290 ca         1 8LP      -0.216000
     10 C15          6.0960     1.4230    -0.1220 ca         1 8LP      -0.124300
     11 C17         -1.0120     0.0000    -3.4870 ca         1 8LP       0.105600
     12 C20          3.4290     0.0010    -1.2370 cc         1 8LP       0.048600
     13 C21          2.0850     0.0010    -1.2240 cd         1 8LP      -0.239200
     14 C22          1.3810     0.0000     0.0000 cd         1 8LP       0.161600
     15 C24         -0.7300     0.0000    -1.1230 c          1 8LP       0.823500
     16 C26          5.5950     0.0020    -0.1090 c3         1 8LP       0.139300
     17 C1           7.0300     4.0250    -0.1450 ca         1 8LP      -0.116000
     18 C2          -4.4540    -6.2390    -8.1910 ca         1 8LP      -0.117000
     19 C3           6.8280     3.3740     1.0570 ca         1 8LP      -0.131000
     20 C9           6.2940     2.0750    -1.3240 ca         1 8LP      -0.106000
     21 C11         -4.9510    -4.3140    -6.8570 ca         1 8LP      -0.102500
     22 C12         -1.4250     1.2020    -4.0470 ca         1 8LP      -0.154000
     23 C14         -1.4240    -1.2020    -4.0460 ca         1 8LP      -0.147000
     24 C16         -3.8200    -3.6850    -7.3430 ca         1 8LP      -0.097300
     25 C18         -2.2340    -1.1980    -5.1710 ca         1 8LP       0.146100
     26 C19          2.1000     0.0000     1.1800 cc         1 8LP      -0.336200
     27 C23          3.5000     0.0000     1.1190 c          1 8LP       0.705700
     28 C25          1.2770     0.0000    -2.5010 c3         1 8LP       0.169200
     29 C27         -3.4730    -2.2940    -6.8780 c3         1 8LP       0.187700
     30 N2          -0.1890     0.0010    -2.3560 n          1 8LP      -0.407000
     31 O1           4.1520     0.0000     2.1510 o          1 8LP      -0.661500
     32 O2          -1.9410     0.0010    -1.0260 o          1 8LP      -0.658500
     33 O3          -2.6400    -2.3730    -5.7200 os         1 8LP      -0.321900
     34 H1          -0.4780    -0.0000     0.8800 hn         1 8LP       0.358500
     35 H2           6.9190     3.8860    -2.2790 ha         1 8LP       0.132500
     36 H4          -6.1570    -6.0810    -6.9040 ha         1 8LP       0.132500
     37 H5          -2.5560     2.1400    -5.6020 ha         1 8LP       0.135000
     38 H6           6.2000     1.5650     2.0120 ha         1 8LP       0.139000
     39 H7          -2.1170    -3.8420    -8.6310 ha         1 8LP       0.133500
     40 H8          -3.2730     0.0090    -6.6070 ha         1 8LP       0.136000
     41 H9           3.9580    -0.0050    -2.1830 h4         1 8LP       0.159000
     42 H10          5.9800    -0.5090     0.7650 h1         1 8LP       0.076200
     43 H11          5.9330    -0.5070    -1.0040 h1         1 8LP       0.076200
     44 H12          7.3980     5.0440    -0.1540 ha         1 8LP       0.131000
     45 H13         -4.7030    -7.2400    -8.5230 ha         1 8LP       0.131000
     46 H14          7.0350     3.8830     1.9900 ha         1 8LP       0.132500
     47 H15          6.0860     1.5650    -2.2580 ha         1 8LP       0.139000
     48 H16         -5.5900    -3.8050    -6.1450 ha         1 8LP       0.133500
     49 H17         -1.1080     2.1410    -3.6090 ha         1 8LP       0.140000
     50 H18         -1.1050    -2.1410    -3.6100 ha         1 8LP       0.154000
     51 H19          1.5900    -0.0000     2.1360 ha         1 8LP       0.169000
     52 H20          1.5540    -0.8780    -3.0700 h1         1 8LP       0.048700
     53 H21          1.5550     0.8790    -3.0710 h1         1 8LP       0.048700
     54 H22         -4.3820    -1.7580    -6.6340 h1         1 8LP       0.041700
     55 H23         -2.9460    -1.7710    -7.6670 h1         1 8LP       0.041700
     56 H3          -2.6810    -6.1220    -9.3840 ha         1 8LP       0.132500
@<TRIPOS>BOND
     1    31    27 2
     2    26    27 1
     3    26    14 2
     4    27     2 1
     5     1    14 1
     6     1    15 1
     7    32    15 2
     8    17    19 ar
     9    17     3 ar
    10    19     7 ar
    11    14    13 1
    12     3    20 ar
    13    15    30 1
    14     7    10 ar
    15    20    10 ar
    16    10    16 1
    17     2    16 1
    18     2    12 1
    19    13    12 2
    20    13    28 1
    21    30    28 1
    22    30    11 1
    23    11    22 ar
    24    11    23 ar
    25    22     6 ar
    26    23    25 ar
    27     6     9 ar
    28    25     9 ar
    29    25    33 1
    30    29    24 1
    31    29    33 1
    32    21    24 ar
    33    21     5 ar
    34    24     8 ar
    35     5    18 ar
    36     8     4 ar
    37    18     4 ar
    38     1    34 1
    39     3    35 1
    40     4    56 1
    41     5    36 1
    42     6    37 1
    43     7    38 1
    44     8    39 1
    45     9    40 1
    46    12    41 1
    47    16    42 1
    48    16    43 1
    49    17    44 1
    50    18    45 1
    51    19    46 1
    52    20    47 1
    53    21    48 1
    54    22    49 1
    55    23    50 1
    56    26    51 1
    57    28    52 1
    58    28    53 1
    59    29    54 1
    60    29    55 1
@<TRIPOS>SUBSTRUCTURE
     1 8LP         1 TEMP              0 ****  ****    0 ROOT
