@<TRIPOS>MOLECULE
molecule
   31    31     1     0     0
SMALL
bcc


@<TRIPOS>ATOM
      1 OAF          0.0000     0.0000     0.0000 oh         1 8LR      -0.597800
      2 CAG          1.4290     0.0000     0.0000 c3         1 8LR       0.142400
      3 CAH          1.9380     0.0000     1.4430 c3         1 8LR       0.142400
      4 O1           1.5610    -1.2210     2.0810 os         1 8LR      -0.444600
      5 C1           1.9900    -1.3240     3.4410 c3         1 8LR       0.315900
      6 O5           1.2470    -0.4060     4.2460 os         1 8LR      -0.411600
      7 C5          -0.1670    -0.6130     4.2130 c3         1 8LR       0.143100
      8 C6          -0.8570     0.4390     5.0840 c3         1 8LR       0.151400
      9 O6          -0.6520     1.7350     4.5180 oh         1 8LR      -0.602800
     10 C4          -0.4890    -2.0100     4.7470 c3         1 8LR       0.117100
     11 O4          -1.8970    -2.2420     4.6610 oh         1 8LR      -0.604800
     12 C3           0.2530    -3.0550     3.9080 c3         1 8LR       0.134100
     13 O3           0.0160    -4.3570     4.4450 oh         1 8LR      -0.597800
     14 C2           1.7540    -2.7500     3.9450 c3         1 8LR       0.114100
     15 O2           2.2320    -2.8670     5.2860 oh         1 8LR      -0.576800
     16 HAG1         1.7900     0.8850    -0.5110 h1         1 8LR       0.027700
     17 HAG2         1.7900    -0.8840    -0.5110 h1         1 8LR       0.027700
     18 HAH1         3.0180     0.0890     1.4440 h1         1 8LR       0.045700
     19 HAH2         1.5060     0.8370     1.9780 h1         1 8LR       0.045700
     20 H1           3.0450    -1.0890     3.5100 h2         1 8LR       0.073700
     21 H2           2.2790    -3.4490     3.3060 h1         1 8LR       0.048700
     22 H5          -0.5180    -0.5290     3.1910 h1         1 8LR       0.083700
     23 H61C        -1.9190     0.2290     5.1300 h1         1 8LR       0.034200
     24 H62C        -0.4390     0.4100     6.0830 h1         1 8LR       0.034200
     25 H4          -0.1680    -2.0840     5.7790 h1         1 8LR       0.067700
     26 H6          -1.1640     2.3700     4.9920 ho         1 8LR       0.400000
     27 HA          -2.2030    -2.6210     5.4680 ho         1 8LR       0.410000
     28 H3          -0.0980    -3.0100     2.8840 h1         1 8LR       0.071700
     29 HB          -0.2190    -4.9470     3.7480 ho         1 8LR       0.403000
     30 HC           3.0610    -3.3150     5.2860 ho         1 8LR       0.403000
     31 HAF         -0.3140     0.1150    -0.8810 ho         1 8LR       0.400000
@<TRIPOS>BOND
     1     1     2 1
     2     2     3 1
     3     3     4 1
     4     4     5 1
     5     5     6 1
     6     5    14 1
     7     6     7 1
     8     7     8 1
     9     7    10 1
    10     8     9 1
    11    10    11 1
    12    10    12 1
    13    12    13 1
    14    12    14 1
    15    14    15 1
    16     2    16 1
    17     2    17 1
    18     3    18 1
    19     3    19 1
    20     5    20 1
    21    14    21 1
    22     7    22 1
    23     8    23 1
    24     8    24 1
    25    10    25 1
    26     9    26 1
    27    11    27 1
    28    12    28 1
    29    13    29 1
    30    15    30 1
    31     1    31 1
@<TRIPOS>SUBSTRUCTURE
     1 8LR         1 TEMP              0 ****  ****    0 ROOT
