@<TRIPOS>MOLECULE
8LR
   31    31     1     0     0
SMALL
bcc


@<TRIPOS>ATOM
      1 OAF         0.1350    0.2190   -0.0730 oh        1 8LR     -0.594800
      2 CAG         1.5380    0.1460    0.0600 c3        1 8LR      0.132400
      3 CAH         1.9710    0.1120    1.5220 c3        1 8LR      0.088400
      4 O1          1.5750   -1.1710    2.0160 os        1 8LR     -0.463600
      5 C1          1.9210   -1.3930    3.3700 c3        1 8LR      0.307900
      6 O5          1.2140   -0.4530    4.1460 os        1 8LR     -0.426600
      7 C5         -0.2080   -0.6210    4.1590 c3        1 8LR      0.147100
      8 C6         -0.7590    0.4840    5.0610 c3        1 8LR      0.135400
      9 O6         -0.8760    1.6480    4.2590 oh        1 8LR     -0.597800
     10 C4         -0.5460   -2.0120    4.7150 c3        1 8LR      0.085100
     11 O4         -1.9570   -2.1350    4.7500 oh        1 8LR     -0.595800
     12 C3          0.0760   -3.0840    3.8040 c3        1 8LR      0.117100
     13 O3         -0.2330   -4.3740    4.2890 oh        1 8LR     -0.595800
     14 C2          1.5900   -2.8680    3.6790 c3        1 8LR      0.094100
     15 O2          2.1590   -3.2500    4.9200 oh        1 8LR     -0.599800
     16 HAG1        1.9270    1.0790   -0.4270 h1        1 8LR      0.052700
     17 HAG2        1.9280   -0.7600   -0.4780 h1        1 8LR      0.052700
     18 HAH1        3.0830    0.2220    1.6090 h1        1 8LR      0.055200
     19 HAH2        1.4550    0.9110    2.1170 h1        1 8LR      0.055200
     20 H1          3.0060   -1.1620    3.5720 h2        1 8LR      0.073700
     21 H2          1.9960   -3.5140    2.8520 h1        1 8LR      0.071700
     22 H5         -0.6050   -0.5070    3.1120 h1        1 8LR      0.081700
     23 H61C       -1.7680    0.1720    5.4420 h1        1 8LR      0.047200
     24 H62C       -0.0600    0.6710    5.9190 h1        1 8LR      0.047200
     25 H4         -0.1350   -2.1230    5.7580 h1        1 8LR      0.060700
     26 H6         -1.2120    2.3440    4.8360 ho        1 8LR      0.402000
     27 HA         -2.1500   -3.0820    4.8090 ho        1 8LR      0.421000
     28 H3         -0.3910   -3.0390    2.7790 h1        1 8LR      0.101700
     29 HB          0.2780   -4.5130    5.0980 ho        1 8LR      0.421000
     30 HC          3.1170   -3.1810    4.8290 ho        1 8LR      0.414000
     31 HAF        -0.2380   -0.5050    0.4460 ho        1 8LR      0.410000
@<TRIPOS>BOND
     1    1    2 1   
     2    1   31 1   
     3    2    3 1   
     4    2   16 1   
     5    2   17 1   
     6    3    4 1   
     7    3   18 1   
     8    3   19 1   
     9    4    5 1   
    10    5    6 1   
    11    5   14 1   
    12    5   20 1   
    13    6    7 1   
    14    7    8 1   
    15    7   10 1   
    16    7   22 1   
    17    8    9 1   
    18    8   23 1   
    19    8   24 1   
    20    9   26 1   
    21   10   11 1   
    22   10   12 1   
    23   10   25 1   
    24   11   27 1   
    25   12   13 1   
    26   12   14 1   
    27   12   28 1   
    28   13   29 1   
    29   14   15 1   
    30   14   21 1   
    31   15   30 1   
@<TRIPOS>SUBSTRUCTURE
     1 8LR         1 TEMP              0 ****  ****    0 ROOT
