@<TRIPOS>MOLECULE
molecule
   62    67     1     0     0
SMALL
bcc


@<TRIPOS>ATOM
      1 C4           0.0000     0.0000     0.0000 ca         1 8LS      -0.153300
      2 C5           1.5080     0.0000     0.0000 c3         1 8LS      -0.029100
      3 C6           2.0220     0.0000     1.4420 c3         1 8LS      -0.110400
      4 C7           1.2720     1.0870     2.2210 c3         1 8LS       0.109800
      5 C10         -2.1110     0.3590     1.0840 ca         1 8LS      -0.139000
      6 N12         -4.1720    -0.0120    -0.1160 n          1 8LS      -0.426000
      7 C13         -4.9200     1.1930    -0.5190 c3         1 8LS       0.168200
      8 C15         -7.2180     2.0950    -0.8700 c2         1 8LS       0.069600
      9 C20        -11.0670     4.6240     1.7590 ca         1 8LS      -0.128500
     10 C21        -10.1760     5.6020     2.1610 ca         1 8LS      -0.114000
     11 C22         -9.0130     5.8120     1.4460 ca         1 8LS      -0.128500
     12 C24         -9.2610     0.9220    -0.5570 c          1 8LS       0.710500
     13 C26         -8.4790    -0.3090    -0.1430 c3         1 8LS      -0.206700
     14 C2          -2.0450    -0.3800    -1.1990 ca         1 8LS      -0.101300
     15 C3          -0.6650    -0.3710    -1.1580 ca         1 8LS      -0.093000
     16 O8          -0.1090     0.7250     2.2820 os         1 8LS      -0.308900
     17 C9          -0.7220     0.3650     1.1230 ca         1 8LS       0.149100
     18 C11         -2.7730    -0.0060    -0.0770 ca         1 8LS       0.092600
     19 C14         -6.4300     1.0670    -0.5220 ce         1 8LS      -0.364800
     20 N16         -8.5790     2.0360    -0.8880 n          1 8LS      -0.362000
     21 C18         -9.6280     4.0660    -0.0710 ca         1 8LS      -0.129300
     22 C19        -10.7930     3.8560     0.6430 ca         1 8LS      -0.108000
     23 C23         -8.7380     5.0450     0.3300 ca         1 8LS      -0.108000
     24 O25        -10.4740     0.9050    -0.5880 o          1 8LS      -0.601500
     25 C27         -6.9700    -0.1770    -0.1430 cf         1 8LS       0.571600
     26 N28         -6.1980    -1.1750     0.1960 ne         1 8LS      -0.658100
     27 C29         -4.8650    -1.1160     0.2210 c          1 8LS       0.849900
     28 O30         -4.2470    -2.1120     0.5540 o          1 8LS      -0.596500
     29 C31          1.8320     1.1900     3.6160 ca         1 8LS       0.394600
     30 N32          1.5420     0.2600     4.5060 nb         1 8LS      -0.636000
     31 C33          2.0100     0.3090     5.7370 ca         1 8LS       0.407200
     32 C34          2.8290     1.3460     6.1440 ca         1 8LS      -0.227300
     33 C35          3.1560     2.3430     5.2380 ca         1 8LS      -0.132000
     34 C36          2.6500     2.2570     3.9480 ca         1 8LS       0.019600
     35 F37          2.9470     3.2030     3.0310 f          1 8LS      -0.134900
     36 H1           1.8670     0.8860    -0.5100 hc         1 8LS       0.055200
     37 H2           1.8670    -0.8860    -0.5100 hc         1 8LS       0.055200
     38 H3           3.0840     0.2150     1.4490 hc         1 8LS       0.066700
     39 H4           1.8370    -0.9660     1.8940 hc         1 8LS       0.066700
     40 H5           1.3750     2.0370     1.7100 h1         1 8LS       0.064700
     41 H6          -2.6770     0.6320     1.9660 ha         1 8LS       0.153000
     42 H7          -4.6520     1.9960     0.1580 h1         1 8LS       0.047700
     43 H8          -4.6040     1.4660    -1.5180 h1         1 8LS       0.047700
     44 H9          -6.7450     3.0280    -1.1510 h4         1 8LS       0.154000
     45 H10         -8.7410     3.8070    -1.9900 h1         1 8LS       0.075200
     46 H11        -10.2590     2.9290    -1.7580 h1         1 8LS       0.075200
     47 H13        -10.3910     6.2040     3.0360 ha         1 8LS       0.133000
     48 H14         -8.3150     6.5790     1.7610 ha         1 8LS       0.134500
     49 H15         -8.7440    -1.1150    -0.8170 hc         1 8LS       0.111700
     50 H16         -8.7910    -0.5830     0.8570 hc         1 8LS       0.111700
     51 H20         -0.0990    -0.6590    -2.0350 ha         1 8LS       0.134000
     52 H21        -11.4910     3.0900     0.3290 ha         1 8LS       0.137000
     53 H22         -7.8260     5.2100    -0.2300 ha         1 8LS       0.137000
     54 H23          1.7490    -0.4730     6.4390 h4         1 8LS       0.032100
     55 H24          3.2080     1.3800     7.1590 ha         1 8LS       0.146000
     56 H25          3.7980     3.1670     5.5280 ha         1 8LS       0.154000
     57 C17         -9.3300     3.2280    -1.2880 c3         1 8LS       0.139300
     58 C1          -2.7590    -0.7850    -2.4630 c3         1 8LS      -0.039800
     59 H12        -11.9790     4.4590     2.3190 ha         1 8LS       0.134500
     60 H17         -2.0540    -1.2470    -3.1440 hc         1 8LS       0.043367
     61 H18         -3.1900     0.0920    -2.9310 hc         1 8LS       0.043367
     62 H19         -3.5450    -1.4900    -2.2240 hc         1 8LS       0.043367
@<TRIPOS>BOND
     1    24    12 2
     2    13    12 1
     3    13    25 1
     4    12    20 1
     5    26    25 2
     6    26    27 1
     7     9    10 ar
     8     9    22 ar
     9    10    11 ar
    10    25    19 1
    11    22    21 ar
    12    28    27 2
    13    11    23 ar
    14    27     6 1
    15    21    23 ar
    16    21    57 1
    17    20    57 1
    18    20     8 1
    19    19     8 2
    20    19     7 1
    21     6     7 1
    22     6    18 1
    23    18     5 ar
    24    18    14 ar
    25     5    17 ar
    26    31    30 ar
    27    31    32 ar
    28    58    14 1
    29    14    15 ar
    30    30    29 ar
    31    17    16 1
    32    17     1 ar
    33    16     4 1
    34    32    33 ar
    35    15     1 ar
    36     1     2 1
    37    29     4 1
    38    29    34 ar
    39     3     4 1
    40     3     2 1
    41    33    34 ar
    42    34    35 1
    43     2    36 1
    44     2    37 1
    45     3    38 1
    46     3    39 1
    47     4    40 1
    48     5    41 1
    49     7    42 1
    50     7    43 1
    51     8    44 1
    52    57    45 1
    53    57    46 1
    54     9    59 1
    55    10    47 1
    56    11    48 1
    57    13    49 1
    58    13    50 1
    59    58    60 1
    60    58    61 1
    61    58    62 1
    62    15    51 1
    63    22    52 1
    64    23    53 1
    65    31    54 1
    66    32    55 1
    67    33    56 1
@<TRIPOS>SUBSTRUCTURE
     1 8LS         1 TEMP              0 ****  ****    0 ROOT
