@<TRIPOS>MOLECULE
8LU
   72    76     1     0     0
SMALL
bcc


@<TRIPOS>ATOM
      1 F1           0.0000     0.0000     0.0000 f          1 8LU      -0.122900
      2 C1           1.3510     0.0000     0.0000 ca         1 8LU       0.092900
      3 C2           2.0420     0.0000     1.2000 ca         1 8LU      -0.105000
      4 C3           3.4240    -0.0010     1.2020 ca         1 8LU      -0.114000
      5 C4           2.0440    -0.0050    -1.2010 ca         1 8LU      -0.053600
      6 Cl1          1.1740    -0.0110    -2.7030 cl         1 8LU       0.006600
      7 C5           3.4250    -0.0050    -1.2020 ca         1 8LU      -0.079000
      8 C6           4.1200    -0.0010     0.0010 ca         1 8LU      -0.005400
      9 N1           5.5190    -0.0010     0.0020 nu         1 8LU      -0.279300
     10 C7           6.2100     0.6440    -1.0040 ca         1 8LU       0.552200
     11 N2           5.5700     1.3600    -1.9180 nb         1 8LU      -0.732000
     12 C8           6.2210     1.9850    -2.8870 ca         1 8LU       0.688900
     13 N3           7.5260     1.9410    -3.0130 nb         1 8LU      -0.684000
     14 C9           8.2720     1.2430    -2.1420 ca         1 8LU       0.473600
     15 C10          7.6200     0.5620    -1.0830 ca         1 8LU      -0.334600
     16 C11          8.3720    -0.1680    -0.1570 ca         1 8LU      -0.033000
     17 C12          9.7440    -0.2150    -0.2800 ca         1 8LU      -0.134400
     18 N4          10.5010    -0.9460     0.6470 ns         1 8LU      -0.006100
     19 C13          9.9950    -2.0680     1.1930 c          1 8LU       0.556100
     20 C14         10.8450    -2.9110     2.1080 c3         1 8LU      -0.033300
     21 C15         10.8590    -2.2990     3.5250 c3         1 8LU      -0.025400
     22 C16          9.7730    -3.1210     4.2680 c3         1 8LU      -0.030400
     23 C17          9.9570    -4.5240     3.6360 c3         1 8LU       0.046000
     24 N5          10.2740    -4.2610     2.2210 n          1 8LU      -0.140800
     25 C18         10.0720    -5.1160     1.1990 c          1 8LU       0.575100
     26 C19          9.4740    -6.4750     1.4600 c3         1 8LU       0.155900
     27 F2           9.3630    -7.1750     0.2550 f          1 8LU      -0.205300
     28 O1          10.3700    -4.7930     0.0690 o          1 8LU      -0.604100
     29 O2           8.8530    -2.4010     0.9490 o          1 8LU      -0.636100
     30 C20         10.3890     0.4630    -1.3250 ca         1 8LU       0.172100
     31 O3          11.7420     0.4040    -1.4290 os         1 8LU      -0.314900
     32 C21         12.3410     1.1150    -2.5140 c3         1 8LU       0.206400
     33 C22         13.8600     0.9330    -2.4690 c3         1 8LU      -0.045400
     34 C23         14.5000     1.6940    -3.6310 c3         1 8LU       0.160800
     35 N6          15.9580     1.5200    -3.5860 n3         1 8LU      -0.536600
     36 C24         16.5300     2.1660    -2.3960 c3         1 8LU       0.107800
     37 C25         18.0390     1.9100    -2.3580 c3         1 8LU       0.214900
     38 O4          18.6290     2.3870    -3.5690 os         1 8LU      -0.411600
     39 C26         18.0960     1.7780    -4.7490 c3         1 8LU       0.214900
     40 C27         16.5890     2.0330    -4.8110 c3         1 8LU       0.107800
     41 C28          9.6650     1.1780    -2.2520 ca         1 8LU      -0.272300
     42 H1           1.4990     0.0000     2.1370 ha         1 8LU       0.120000
     43 H2           3.9640     0.0010     2.1410 ha         1 8LU       0.109000
     44 H3           3.9660    -0.0070    -2.1400 ha         1 8LU       0.154000
     45 H4           6.0190    -0.4590     0.7380 hn         1 8LU       0.299800
     46 H5           5.6500     2.5560    -3.6090 h5         1 8LU      -0.004900
     47 H6           7.8930    -0.5880     0.7190 ha         1 8LU       0.137000
     48 H7          11.4030    -0.6160     0.9270 hn         1 8LU       0.173500
     49 H8          11.8570    -2.9730     1.7260 h1         1 8LU       0.045700
     50 H9          11.8280    -2.4370     3.9910 hc         1 8LU       0.027200
     51 H10         10.5880    -1.2510     3.4900 hc         1 8LU       0.027200
     52 H11          9.9710    -3.1480     5.3330 hc         1 8LU       0.031200
     53 H12          8.7840    -2.7310     4.0600 hc         1 8LU       0.031200
     54 H13          9.0400    -5.0950     3.7170 h1         1 8LU       0.019700
     55 H14         10.7780    -5.0460     4.1140 h1         1 8LU       0.019700
     56 H15         10.1130    -7.0260     2.1400 h1         1 8LU       0.021700
     57 H16          8.4920    -6.3580     1.9030 h1         1 8LU       0.021700
     58 H17         11.9590     0.7290    -3.4520 h1         1 8LU       0.008700
     59 H18         12.1010     2.1680    -2.4320 h1         1 8LU       0.008700
     60 H19         14.2410     1.3190    -1.5310 hc         1 8LU       0.032700
     61 H20         14.1000    -0.1200    -2.5500 hc         1 8LU       0.032700
     62 H21         14.2600     2.7470    -3.5500 h1         1 8LU       0.011700
     63 H22         14.1190     1.3080    -4.5690 h1         1 8LU       0.011700
     64 H24         16.3470     3.2330    -2.4420 h1         1 8LU       0.018450
     65 H25         16.0720     1.7530    -1.5050 h1         1 8LU       0.018450
     66 H26         18.4730     2.4340    -1.5150 h1         1 8LU       0.013200
     67 H27         18.2210     0.8460    -2.2630 h1         1 8LU       0.013200
     68 H28         18.2800     0.7110    -4.7180 h1         1 8LU       0.013200
     69 H29         18.5710     2.2080    -5.6220 h1         1 8LU       0.013200
     70 H30         16.1720     1.5240    -5.6720 h1         1 8LU       0.018450
     71 H31         16.4060     3.0980    -4.8910 h1         1 8LU       0.018450
     72 H32         10.1730     1.6980    -3.0560 ha         1 8LU       0.142000
@<TRIPOS>BOND
     1     1     2 1   
     2     2     3 ar  
     3     2     5 ar  
     4     3     4 ar  
     5     3    42 1   
     6     4     8 ar  
     7     4    43 1   
     8     5     6 1   
     9     5     7 ar  
    10     7     8 ar  
    11     7    44 1   
    12     8     9 1   
    13     9    10 1   
    14     9    45 1   
    15    10    11 ar  
    16    10    15 ar  
    17    11    12 ar  
    18    12    13 ar  
    19    12    46 1   
    20    13    14 ar  
    21    14    15 ar  
    22    14    41 ar  
    23    15    16 ar  
    24    16    17 ar  
    25    16    47 1   
    26    17    18 1   
    27    17    30 ar  
    28    18    19 1   
    29    18    48 1   
    30    19    20 1   
    31    19    29 2   
    32    20    21 1   
    33    20    24 1   
    34    20    49 1   
    35    21    22 1   
    36    21    50 1   
    37    21    51 1   
    38    22    23 1   
    39    22    52 1   
    40    22    53 1   
    41    23    24 1   
    42    23    54 1   
    43    23    55 1   
    44    24    25 1   
    45    25    26 1   
    46    25    28 2   
    47    26    27 1   
    48    26    56 1   
    49    26    57 1   
    50    30    31 1   
    51    30    41 ar  
    52    31    32 1   
    53    32    33 1   
    54    32    58 1   
    55    32    59 1   
    56    33    34 1   
    57    33    60 1   
    58    33    61 1   
    59    34    35 1   
    60    34    62 1   
    61    34    63 1   
    62    35    36 1   
    63    35    40 1   
    64    36    37 1   
    65    36    64 1   
    66    36    65 1   
    67    37    38 1   
    68    37    66 1   
    69    37    67 1   
    70    38    39 1   
    71    39    40 1   
    72    39    68 1   
    73    39    69 1   
    74    40    70 1   
    75    40    71 1   
    76    41    72 1   
@<TRIPOS>SUBSTRUCTURE
     1 8LU         1 TEMP              0 ****  ****    0 ROOT
