@<TRIPOS>MOLECULE
molecule
   72    76     1     0     0
SMALL
bcc


@<TRIPOS>ATOM
      1 F1           0.0000     0.0000     0.0000 f          1 8LU      -0.129900
      2 C1           1.3510     0.0000     0.0000 ca         1 8LU       0.119900
      3 C2           2.0420     0.0000     1.2000 ca         1 8LU      -0.142000
      4 C3           3.4240    -0.0010     1.2020 ca         1 8LU      -0.143000
      5 C4           2.0440    -0.0050    -1.2010 ca         1 8LU       0.003400
      6 Cl1          1.1740    -0.0110    -2.7030 cl         1 8LU      -0.082400
      7 C5           3.4250    -0.0050    -1.2020 ca         1 8LU      -0.094000
      8 C6           4.1200    -0.0010     0.0010 ca         1 8LU       0.150600
      9 N1           5.5190    -0.0010     0.0020 nu         1 8LU      -0.753300
     10 C7           6.2100     0.6440    -1.0040 ca         1 8LU       0.748200
     11 N2           5.5700     1.3600    -1.9180 nb         1 8LU      -0.829000
     12 C8           6.2210     1.9850    -2.8870 ca         1 8LU       0.729900
     13 N3           7.5260     1.9410    -3.0130 nb         1 8LU      -0.774000
     14 C9           8.2720     1.2430    -2.1420 ca         1 8LU       0.499600
     15 C10          7.6200     0.5620    -1.0830 ca         1 8LU      -0.335600
     16 C11          8.3720    -0.1680    -0.1570 ca         1 8LU      -0.062000
     17 C12          9.7440    -0.2150    -0.2800 ca         1 8LU       0.023600
     18 N4          10.5010    -0.9460     0.6470 ns         1 8LU      -0.463100
     19 C13          9.9950    -2.0680     1.1930 c          1 8LU       0.656100
     20 C14         10.8450    -2.9110     2.1080 c3         1 8LU       0.047700
     21 C15         10.8590    -2.2990     3.5250 c3         1 8LU      -0.090400
     22 C16          9.7730    -3.1210     4.2680 c3         1 8LU      -0.093400
     23 C17          9.9570    -4.5240     3.6360 c3         1 8LU       0.094000
     24 N5          10.2740    -4.2610     2.2210 n          1 8LU      -0.483800
     25 C18         10.0720    -5.1160     1.1990 c          1 8LU       0.651100
     26 C19          9.4740    -6.4750     1.4600 c3         1 8LU       0.103900
     27 F2           9.3630    -7.1750     0.2550 f          1 8LU      -0.214300
     28 O1          10.3700    -4.7930     0.0690 o          1 8LU      -0.561100
     29 O2           8.8530    -2.4010     0.9490 o          1 8LU      -0.590100
     30 C20         10.3890     0.4630    -1.3250 ca         1 8LU       0.160100
     31 O3          11.7420     0.4040    -1.4290 os         1 8LU      -0.333900
     32 C21         12.3410     1.1150    -2.5140 c3         1 8LU       0.135400
     33 C22         13.8600     0.9330    -2.4690 c3         1 8LU      -0.084400
     34 C23         14.5000     1.6940    -3.6310 c3         1 8LU       0.165800
     35 N6          15.9580     1.5200    -3.5860 n3         1 8LU      -0.727600
     36 C24         16.5300     2.1660    -2.3960 c3         1 8LU       0.122300
     37 C25         18.0390     1.9100    -2.3580 c3         1 8LU       0.139400
     38 O4          18.6290     2.3870    -3.5690 os         1 8LU      -0.424600
     39 C26         18.0960     1.7780    -4.7490 c3         1 8LU       0.139400
     40 C27         16.5890     2.0330    -4.8110 c3         1 8LU       0.122300
     41 C28          9.6650     1.1780    -2.2520 ca         1 8LU      -0.279300
     42 H1           1.4990     0.0000     2.1370 ha         1 8LU       0.151000
     43 H2           3.9640     0.0010     2.1410 ha         1 8LU       0.137000
     44 H3           3.9660    -0.0070    -2.1400 ha         1 8LU       0.182000
     45 H4           6.0190    -0.4590     0.7380 hn         1 8LU       0.467800
     46 H5           5.6500     2.5560    -3.6090 h5         1 8LU       0.059100
     47 H6           7.8930    -0.5880     0.7190 ha         1 8LU       0.157000
     48 H7          11.4030    -0.6160     0.9270 hn         1 8LU       0.333500
     49 H8          11.8570    -2.9730     1.7260 h1         1 8LU       0.077700
     50 H9          11.8280    -2.4370     3.9910 hc         1 8LU       0.061200
     51 H10         10.5880    -1.2510     3.4900 hc         1 8LU       0.061200
     52 H11          9.9710    -3.1480     5.3330 hc         1 8LU       0.063700
     53 H12          8.7840    -2.7310     4.0600 hc         1 8LU       0.063700
     54 H13          9.0400    -5.0950     3.7170 h1         1 8LU       0.049200
     55 H14         10.7780    -5.0460     4.1140 h1         1 8LU       0.049200
     56 H15         10.1130    -7.0260     2.1400 h1         1 8LU       0.060200
     57 H16          8.4920    -6.3580     1.9030 h1         1 8LU       0.060200
     58 H17         11.9590     0.7290    -3.4520 h1         1 8LU       0.043200
     59 H18         12.1010     2.1680    -2.4320 h1         1 8LU       0.043200
     60 H19         14.2410     1.3190    -1.5310 hc         1 8LU       0.063200
     61 H20         14.1000    -0.1200    -2.5500 hc         1 8LU       0.063200
     62 H21         14.2600     2.7470    -3.5500 h1         1 8LU       0.037700
     63 H22         14.1190     1.3080    -4.5690 h1         1 8LU       0.037700
     64 H24         16.3470     3.2330    -2.4420 h1         1 8LU       0.043700
     65 H25         16.0720     1.7530    -1.5050 h1         1 8LU       0.043700
     66 H26         18.4730     2.4340    -1.5150 h1         1 8LU       0.054450
     67 H27         18.2210     0.8460    -2.2630 h1         1 8LU       0.054450
     68 H28         18.2800     0.7110    -4.7180 h1         1 8LU       0.054450
     69 H29         18.5710     2.2080    -5.6220 h1         1 8LU       0.054450
     70 H30         16.1720     1.5240    -5.6720 h1         1 8LU       0.043700
     71 H31         16.4060     3.0980    -4.8910 h1         1 8LU       0.043700
     72 H32         10.1730     1.6980    -3.0560 ha         1 8LU       0.161000
@<TRIPOS>BOND
     1     1     2 1   
     2     2     3 ar  
     3     2     5 ar  
     4     6     5 1   
     5     3     4 ar  
     6     5     7 ar  
     7     4     8 ar  
     8     7     8 ar  
     9     8     9 1   
    10     9    10 1   
    11    11    10 ar  
    12    11    12 ar  
    13    10    15 ar  
    14    12    13 ar  
    15    15    16 ar  
    16    15    14 ar  
    17    13    14 ar  
    18    16    17 ar  
    19    14    41 ar  
    20    17    18 1   
    21    17    30 ar  
    22    28    25 2   
    23    41    30 ar  
    24    27    26 1   
    25    18    19 1   
    26    30    31 1   
    27    25    26 1   
    28    25    24 1   
    29    19    29 2   
    30    19    20 1   
    31    20    24 1   
    32    20    21 1   
    33    31    32 1   
    34    24    23 1   
    35    32    33 1   
    36    21    22 1   
    37    23    22 1   
    38    33    34 1   
    39    34    35 1   
    40    35    40 1   
    41    35    36 1   
    42    40    39 1   
    43    36    37 1   
    44    39    38 1   
    45    37    38 1   
    46     3    42 1   
    47     4    43 1   
    48     7    44 1   
    49     9    45 1   
    50    12    46 1   
    51    16    47 1   
    52    18    48 1   
    53    20    49 1   
    54    21    50 1   
    55    21    51 1   
    56    22    52 1   
    57    22    53 1   
    58    23    54 1   
    59    23    55 1   
    60    26    56 1   
    61    26    57 1   
    62    32    58 1   
    63    32    59 1   
    64    33    60 1   
    65    33    61 1   
    66    34    62 1   
    67    34    63 1   
    68    36    64 1   
    69    36    65 1   
    70    37    66 1   
    71    37    67 1   
    72    39    68 1   
    73    39    69 1   
    74    40    70 1   
    75    40    71 1   
    76    41    72 1   
@<TRIPOS>SUBSTRUCTURE
     1 8LU         1 TEMP              0 ****  ****    0 ROOT
