@<TRIPOS>MOLECULE
8LW
   45    49     1     0     0
SMALL
bcc


@<TRIPOS>ATOM
      1 CAK          0.0000     0.0000     0.0000 c3         1 8LW       0.053200
      2 CAJ          1.5070     0.0000     0.0000 ca         1 8LW      -0.050300
      3 CAI          2.1950     0.0000     1.1960 ca         1 8LW      -0.083000
      4 CAH          3.5820    -0.0050     1.1970 ca         1 8LW      -0.128400
      5 NAF          4.5360    -0.0070     2.2140 n          1 8LW       0.047000
      6 CAG          4.2580    -0.0040     3.6510 c3         1 8LW       0.085300
      7 CAD          5.7580    -0.0120     1.6470 c          1 8LW       0.582500
      8 OAE          6.8120    -0.0160     2.2550 o          1 8LW      -0.721500
      9 NAB          5.6370    -0.0150     0.3060 n          1 8LW       0.050000
     10 CAC          6.7420    -0.0210    -0.6540 c3         1 8LW       0.084300
     11 CAA          4.2810    -0.0100    -0.0120 ca         1 8LW      -0.152400
     12 CBB          3.5860    -0.0090    -1.2120 ca         1 8LW      -0.043000
     13 CAL          2.2000    -0.0040    -1.2050 ca         1 8LW      -0.095400
     14 NAM          1.4950    -0.0090    -2.4180 n          1 8LW       0.027400
     15 CAN          1.1730     1.1680    -2.9860 c          1 8LW       0.638600
     16 OAO          1.4950     2.2080    -2.4450 o          1 8LW      -0.638000
     17 CAP          0.4340     1.2030    -4.2560 ca         1 8LW      -0.181600
     18 CAY          0.0720    -0.0210    -4.8650 ca         1 8LW       0.019000
     19 CAQ          0.0810     2.3920    -4.8760 ca         1 8LW       0.010000
     20 CAR         -0.6180     2.3740    -6.0770 ca         1 8LW      -0.130000
     21 CAS         -0.9770     1.2020    -6.6780 ca         1 8LW      -0.039000
     22 CAT         -0.6370    -0.0270    -6.0840 ca         1 8LW      -0.066000
     23 CAU         -0.9800    -1.2600    -6.6650 ca         1 8LW      -0.039000
     24 CAV         -0.6300    -2.4260    -6.0480 ca         1 8LW      -0.130000
     25 CAW          0.0680    -2.4340    -4.8460 ca         1 8LW       0.010000
     26 CAX          0.4260    -1.2390    -4.2400 ca         1 8LW      -0.181600
     27 CAZ          1.1700    -1.1930    -2.9730 c          1 8LW       0.638600
     28 OBA          1.4900    -2.2280    -2.4210 o          1 8LW      -0.638000
     29 H1          -0.3610    -0.0400     1.0210 hc         1 8LW       0.014033
     30 H2          -0.3610     0.9040    -0.4760 hc         1 8LW       0.014033
     31 H3          -0.3610    -0.8640    -0.5450 hc         1 8LW       0.014033
     32 H4           1.6530     0.0500     2.1330 ha         1 8LW       0.113000
     33 H5           5.1920    -0.0290     4.2000 h1         1 8LW       0.019700
     34 H6           3.6660    -0.8740     3.9060 h1         1 8LW       0.019700
     35 H7           3.7110     0.8940     3.9120 h1         1 8LW       0.019700
     36 H8           7.6850    -0.0230    -0.1200 h1         1 8LW       0.019700
     37 H9           6.6830     0.8630    -1.2790 h1         1 8LW       0.019700
     38 H10          6.6770    -0.9060    -1.2750 h1         1 8LW       0.019700
     39 H11          4.1250    -0.0120    -2.1510 ha         1 8LW       0.111000
     40 H12          0.3520     3.3380    -4.4230 ha         1 8LW       0.125000
     41 H13         -0.8850     3.3130    -6.5480 ha         1 8LW       0.110000
     42 H14         -1.5220     1.2180    -7.6140 ha         1 8LW       0.107000
     43 H15         -1.5240    -1.2850    -7.6020 ha         1 8LW       0.107000
     44 H16         -0.9020    -3.3690    -6.5070 ha         1 8LW       0.110000
     45 H17          0.3320    -3.3770    -4.3810 ha         1 8LW       0.125000
@<TRIPOS>BOND
     1     1     2 1   
     2     1    29 1   
     3     1    30 1   
     4     1    31 1   
     5     2     3 ar  
     6     2    13 ar  
     7     3     4 ar  
     8     3    32 1   
     9     4     5 1   
    10     4    11 ar  
    11     5     6 1   
    12     5     7 1   
    13     6    33 1   
    14     6    34 1   
    15     6    35 1   
    16     7     8 2   
    17     7     9 1   
    18     9    10 1   
    19     9    11 1   
    20    10    36 1   
    21    10    37 1   
    22    10    38 1   
    23    11    12 ar  
    24    12    13 ar  
    25    12    39 1   
    26    13    14 1   
    27    14    15 1   
    28    14    27 1   
    29    15    16 2   
    30    15    17 1   
    31    17    18 ar  
    32    17    19 ar  
    33    18    22 ar  
    34    18    26 ar  
    35    19    20 ar  
    36    19    40 1   
    37    20    21 ar  
    38    20    41 1   
    39    21    22 ar  
    40    21    42 1   
    41    22    23 ar  
    42    23    24 ar  
    43    23    43 1   
    44    24    25 ar  
    45    24    44 1   
    46    25    26 ar  
    47    25    45 1   
    48    26    27 1   
    49    27    28 2   
@<TRIPOS>SUBSTRUCTURE
     1 8LW         1 TEMP              0 ****  ****    0 ROOT
