@<TRIPOS>MOLECULE
molecule
   45    49     1     0     0
SMALL
bcc


@<TRIPOS>ATOM
      1 CAK          0.0000     0.0000     0.0000 c3         1 8LW      -0.046800
      2 CAJ          1.5070     0.0000     0.0000 ca         1 8LW      -0.050300
      3 CAI          2.1950     0.0000     1.1960 ca         1 8LW      -0.123000
      4 CAH          3.5820    -0.0050     1.1970 ca         1 8LW       0.013600
      5 NAF          4.5360    -0.0070     2.2140 n          1 8LW      -0.359000
      6 CAG          4.2580    -0.0040     3.6510 c3         1 8LW       0.117300
      7 CAD          5.7580    -0.0120     1.6470 c          1 8LW       0.802500
      8 OAE          6.8120    -0.0160     2.2550 o          1 8LW      -0.664500
      9 NAB          5.6370    -0.0150     0.3060 n          1 8LW      -0.357000
     10 CAC          6.7420    -0.0210    -0.6540 c3         1 8LW       0.116300
     11 CAA          4.2810    -0.0100    -0.0120 ca         1 8LW      -0.004400
     12 CBB          3.5860    -0.0090    -1.2120 ca         1 8LW      -0.093000
     13 CAL          2.2000    -0.0040    -1.2050 ca         1 8LW       0.037600
     14 NAM          1.4950    -0.0090    -2.4180 n          1 8LW      -0.382600
     15 CAN          1.1730     1.1680    -2.9860 c          1 8LW       0.720100
     16 OAO          1.4950     2.2080    -2.4450 o          1 8LW      -0.595000
     17 CAP          0.4340     1.2030    -4.2560 ca         1 8LW      -0.165600
     18 CAY          0.0720    -0.0210    -4.8650 ca         1 8LW       0.012000
     19 CAQ          0.0810     2.3920    -4.8760 ca         1 8LW      -0.028000
     20 CAR         -0.6180     2.3740    -6.0770 ca         1 8LW      -0.151000
     21 CAS         -0.9770     1.2020    -6.6780 ca         1 8LW      -0.072000
     22 CAT         -0.6370    -0.0270    -6.0840 ca         1 8LW      -0.062000
     23 CAU         -0.9800    -1.2600    -6.6650 ca         1 8LW      -0.072000
     24 CAV         -0.6300    -2.4260    -6.0480 ca         1 8LW      -0.151000
     25 CAW          0.0680    -2.4340    -4.8460 ca         1 8LW      -0.028000
     26 CAX          0.4260    -1.2390    -4.2400 ca         1 8LW      -0.165600
     27 CAZ          1.1700    -1.1930    -2.9730 c          1 8LW       0.720100
     28 OBA          1.4900    -2.2280    -2.4210 o          1 8LW      -0.595000
     29 H1          -0.3610    -0.0400     1.0210 hc         1 8LW       0.048367
     30 H2          -0.3610     0.9040    -0.4760 hc         1 8LW       0.048367
     31 H3          -0.3610    -0.8640    -0.5450 hc         1 8LW       0.048367
     32 H4           1.6530     0.0500     2.1330 ha         1 8LW       0.140000
     33 H5           5.1920    -0.0290     4.2000 h1         1 8LW       0.053033
     34 H6           3.6660    -0.8740     3.9060 h1         1 8LW       0.053033
     35 H7           3.7110     0.8940     3.9120 h1         1 8LW       0.053033
     36 H8           7.6850    -0.0230    -0.1200 h1         1 8LW       0.053367
     37 H9           6.6830     0.8630    -1.2790 h1         1 8LW       0.053367
     38 H10          6.6770    -0.9060    -1.2750 h1         1 8LW       0.053367
     39 H11          4.1250    -0.0120    -2.1510 ha         1 8LW       0.143000
     40 H12          0.3520     3.3380    -4.4230 ha         1 8LW       0.159500
     41 H13         -0.8850     3.3130    -6.5480 ha         1 8LW       0.140000
     42 H14         -1.5220     1.2180    -7.6140 ha         1 8LW       0.139000
     43 H15         -1.5240    -1.2850    -7.6020 ha         1 8LW       0.139000
     44 H16         -0.9020    -3.3690    -6.5070 ha         1 8LW       0.140000
     45 H17          0.3320    -3.3770    -4.3810 ha         1 8LW       0.159500
@<TRIPOS>BOND
     1     8     7 2
     2     7     9 1
     3     7     5 1
     4    10     9 1
     5     6     5 1
     6     9    11 1
     7     5     4 1
     8    16    15 2
     9    11     4 ar
    10    11    12 ar
    11     4     3 ar
    12    19    20 ar
    13    19    17 ar
    14    12    13 ar
    15     3     2 ar
    16    15    17 1
    17    15    14 1
    18    20    21 ar
    19     2    13 ar
    20     2     1 1
    21    13    14 1
    22    17    18 ar
    23    14    27 1
    24    21    22 ar
    25    18    22 ar
    26    18    26 ar
    27    27    26 1
    28    27    28 2
    29    22    23 ar
    30    26    25 ar
    31    23    24 ar
    32    25    24 ar
    33     1    29 1
    34     1    30 1
    35     1    31 1
    36     3    32 1
    37     6    33 1
    38     6    34 1
    39     6    35 1
    40    10    36 1
    41    10    37 1
    42    10    38 1
    43    12    39 1
    44    19    40 1
    45    20    41 1
    46    21    42 1
    47    23    43 1
    48    24    44 1
    49    25    45 1
@<TRIPOS>SUBSTRUCTURE
     1 8LW         1 TEMP              0 ****  ****    0 ROOT
