@<TRIPOS>MOLECULE
molecule
   58    61     1     0     0
SMALL
bcc


@<TRIPOS>ATOM
      1 CAE          0.0000     0.0000     0.0000 c3         1 8LX      -0.066600
      2 CAF         -0.5420     1.2590    -0.6790 c3         1 8LX      -0.004100
      3 CAG         -2.0440     1.1730    -0.7730 ca         1 8LX      -0.148300
      4 CAH          1.5130     0.0000     0.0000 c          1 8LX       0.701500
      5 CAI         -2.8290     1.6680     0.2520 ca         1 8LX      -0.078500
      6 CAJ         -2.6340     0.6040    -1.8870 ca         1 8LX      -0.078500
      7 CAK         -8.2250     0.3360    -2.1230 c3         1 8LX       0.243800
      8 CAL         -4.8000     1.0150    -0.9460 ca         1 8LX       0.151100
      9 CAM         -6.6960     0.3330    -2.2060 c3         1 8LX       0.115400
     10 CAN         -4.2060     1.5900     0.1680 ca         1 8LX      -0.190500
     11 CAO         -4.0100     0.5250    -1.9760 ca         1 8LX      -0.190500
     12 CAP          1.2830    -0.0010     2.3040 c          1 8LX       0.738100
     13 CAR         -9.0260     2.3710    -3.4090 c3         1 8LX       0.229100
     14 CAV        -10.1270     6.2090     1.5420 ca         1 8LX       0.071100
     15 CAW         -8.9380     6.6660     2.0930 ca         1 8LX      -0.086000
     16 CAX        -11.3230     6.4060     2.2160 ca         1 8LX      -0.086000
     17 CAY        -10.1410     7.5070     3.9880 ca         1 8LX       0.142100
     18 CAZ         -8.9450     7.3140     3.3120 ca         1 8LX      -0.181500
     19 NAA         -8.7120     1.7170    -2.1360 nh         1 8LX      -0.820300
     20 NAB          2.0470     0.0000     1.2100 ns         1 8LX      -0.583500
     21 CBA        -11.3310     7.0530     3.4360 ca         1 8LX      -0.181500
     22 CBB         -8.8870     8.5830     5.6980 c3         1 8LX       0.128700
     23 OBC         -6.1540     0.9380    -1.0300 os         1 8LX      -0.298900
     24 OBD          2.1750     0.0010    -1.0160 o          1 8LX      -0.575500
     25 OBE          1.6760    -0.0020     3.4540 o          1 8LX      -0.543500
     26 OBG        -10.1490     8.1430     5.1900 os         1 8LX      -0.328900
     27 SBH         -0.4100    -0.0010     1.7780 ss         1 8LX      -0.241700
     28 N1          -8.5020     1.8590     0.2100 nb         1 8LX      -0.812000
     29 C2          -8.6550     2.5080     1.3460 ca         1 8LX       0.748900
     30 N3          -9.1810     3.7150     1.3930 nb         1 8LX      -0.844000
     31 C4          -9.5800     4.3290     0.2830 ca         1 8LX       0.709600
     32 C5          -9.4360     3.6810    -0.9370 ca         1 8LX      -0.463600
     33 C6          -8.8770     2.4060    -0.9450 ca         1 8LX       0.753200
     34 H1          -0.3800    -0.8950    -0.4780 h1         1 8LX       0.123700
     35 H2          -0.1220     1.3420    -1.6740 hc         1 8LX       0.069200
     36 H3          -0.2660     2.1310    -0.0970 hc         1 8LX       0.069200
     37 H4          -2.3650     2.1170     1.1210 ha         1 8LX       0.137500
     38 H5          -2.0170     0.2220    -2.6910 ha         1 8LX       0.137500
     39 H6          -8.6340    -0.2000    -2.9710 h1         1 8LX       0.072200
     40 H7          -8.5370    -0.1480    -1.2050 h1         1 8LX       0.072200
     41 H8          -6.3810     0.8930    -3.0790 h1         1 8LX       0.037700
     42 H9          -6.3410    -0.6870    -2.2840 h1         1 8LX       0.037700
     43 H10         -4.8210     1.9760     0.9720 ha         1 8LX       0.142000
     44 H11         -4.4720     0.0780    -2.8470 ha         1 8LX       0.142000
     45 H12        -10.0840     2.5980    -3.4470 h1         1 8LX       0.041700
     46 H13         -8.4560     3.2880    -3.4940 h1         1 8LX       0.041700
     47 H14         -8.7690     1.7090    -4.2280 h1         1 8LX       0.041700
     48 H15         -8.0040     6.5140     1.5660 ha         1 8LX       0.143000
     49 H16        -12.2520     6.0510     1.7860 ha         1 8LX       0.143000
     50 H17         -8.0170     7.6690     3.7420 ha         1 8LX       0.143000
     51 H18          3.0430     0.0000     1.3060 hn         1 8LX       0.349500
     52 H19        -12.2650     7.2060     3.9620 ha         1 8LX       0.143000
     53 H20         -8.4410     9.2830     5.0020 h1         1 8LX       0.042033
     54 H21         -9.0330     9.0680     6.6560 h1         1 8LX       0.042033
     55 H22         -8.2310     7.7300     5.8230 h1         1 8LX       0.042033
     56 H23         -8.3400     2.0350     2.2690 h5         1 8LX       0.059100
     57 H24         -9.9620     4.0480    -1.8110 ha         1 8LX       0.153000
     58 OBF        -10.1200     5.5710     0.3410 os         1 8LX      -0.351400
@<TRIPOS>BOND
     1    22    26 1
     2    26    17 1
     3    17    21 ar
     4    17    18 ar
     5    21    16 ar
     6    18    15 ar
     7    16    14 ar
     8    15    14 ar
     9    14    58 1
    10    58    31 1
    11    31    30 ar
    12    31    32 ar
    13    30    29 ar
    14    32    33 ar
    15    29    28 ar
    16    33    28 ar
    17    33    19 1
    18    13    19 1
    19    19     7 1
    20     7     9 1
    21     9    23 1
    22    23     8 1
    23     8    10 ar
    24     8    11 ar
    25    10     5 ar
    26    11     6 ar
    27     5     3 ar
    28    27     1 1
    29    27    12 1
    30     6     3 ar
    31     3     2 1
    32    25    12 2
    33     1     2 1
    34     1     4 1
    35    12    20 1
    36    20     4 1
    37     4    24 2
    38     1    34 1
    39     2    35 1
    40     2    36 1
    41     5    37 1
    42     6    38 1
    43     7    39 1
    44     7    40 1
    45     9    41 1
    46     9    42 1
    47    10    43 1
    48    11    44 1
    49    13    45 1
    50    13    46 1
    51    13    47 1
    52    15    48 1
    53    16    49 1
    54    18    50 1
    55    20    51 1
    56    21    52 1
    57    22    53 1
    58    22    54 1
    59    22    55 1
    60    29    56 1
    61    32    57 1
@<TRIPOS>SUBSTRUCTURE
     1 8LX         1 TEMP              0 ****  ****    0 ROOT
