@<TRIPOS>MOLECULE
molecule
   53    57     1     0     0
SMALL
bcc


@<TRIPOS>ATOM
      1 C4           0.0000     0.0000     0.0000 ca         1 8LY      -0.086000
      2 C5           1.3850     0.0000     0.0000 ca         1 8LY       0.004400
      3 C7           2.0780     0.0000     1.1940 ca         1 8LY      -0.084000
      4 C8           1.3820     0.0010     2.4010 cp         1 8LY      -0.178500
      5 C10          3.5060    -0.1170     3.6850 ca         1 8LY      -0.282300
      6 N12          5.5740    -0.2300     4.9440 nu         1 8LY      -0.661000
      7 C13          6.1740    -1.0250     5.9090 ca         1 8LY       0.237600
      8 C15          6.0480    -2.6240     7.7040 ca         1 8LY       0.444200
      9 C17          8.1800    -1.9100     7.1340 ca         1 8LY       0.225300
     10 C20         11.1730    -0.3940     5.7660 c3         1 8LY       0.072300
     11 C21         11.4070    -0.6290     4.2720 c3         1 8LY      -0.090700
     12 C22         12.7610    -0.0400     3.8670 c3         1 8LY      -0.075900
     13 C26         11.4070    -2.1340     3.9850 c3         1 8LY      -0.075900
     14 C28          7.6270    -1.0380     6.0880 ca         1 8LY      -0.187300
     15 C2          -0.0130     0.0020     2.3960 ca         1 8LY       0.179900
     16 C3          -0.6970     0.0060     1.1940 ca         1 8LY      -0.171000
     17 Cl6          2.2510    -0.0010    -1.5050 cl         1 8LY      -0.102400
     18 C9           2.1220     0.0010     3.6870 cp         1 8LY       0.501800
     19 C11          4.1850    -0.1150     4.9010 ca         1 8LY       0.197600
     20 C14          5.4250    -1.8350     6.7430 ca         1 8LY      -0.339300
     21 N16          7.3430    -2.6530     7.8790 nb         1 8LY      -0.677000
     22 C18          9.5500    -1.7380     7.0960 cc         1 8LY      -0.102100
     23 N19          9.8290    -0.8500     6.1280 na         1 8LY       0.134800
     24 C23         13.0160    -0.3320     2.3860 c3         1 8LY       0.160800
     25 N24         13.0070    -1.7830     2.1630 n7         1 8LY      -0.820200
     26 C25         11.7010    -2.3640     2.5010 c3         1 8LY       0.160800
     27 N27          8.6430    -0.4270     5.5150 nc         1 8LY      -0.273400
     28 C29          3.4410     0.0050     6.0750 ca         1 8LY      -0.295300
     29 C30          2.0690     0.1170     5.9960 ca         1 8LY       0.447200
     30 N31          1.4540     0.1130     4.8300 nb         1 8LY      -0.692000
     31 H1          -0.5390     0.0020    -0.9390 ha         1 8LY       0.150000
     32 H2           3.1610    -0.0010     1.1920 ha         1 8LY       0.152000
     33 H3           4.0250    -0.3970     2.7750 ha         1 8LY       0.147000
     34 H4           6.1380     0.2800     4.2940 hn         1 8LY       0.465800
     35 H5           5.4280    -3.2450     8.3390 h4         1 8LY       0.020100
     36 H6          11.9080    -0.9470     6.3380 h1         1 8LY       0.067700
     37 H7          11.2670     0.6630     5.9840 h1         1 8LY       0.067700
     38 H8          10.6210    -0.1530     3.6990 hc         1 8LY       0.076700
     39 H9          12.7500     1.0320     4.0260 hc         1 8LY       0.052450
     40 H10         13.5440    -0.4910     4.4640 hc         1 8LY       0.052450
     41 H11         10.4350    -2.5470     4.2280 hc         1 8LY       0.052450
     42 H12         12.1710    -2.6150     4.5830 hc         1 8LY       0.052450
     43 H13         -1.7800     0.0070     1.1880 ha         1 8LY       0.155000
     44 H14          4.3460    -1.8550     6.6470 ha         1 8LY       0.154000
     45 H15         10.2680    -2.2000     7.7630 h4         1 8LY       0.189000
     46 H16         13.9810     0.0700     2.1010 h1         1 8LY       0.034700
     47 H17         12.2370     0.1280     1.7890 h1         1 8LY       0.034700
     48 H18         13.2200    -1.9750     1.2040 hn         1 8LY       0.355800
     49 H20         11.7180    -3.4280     2.2990 h1         1 8LY       0.034700
     50 H21         10.9310    -1.8900     1.9040 h1         1 8LY       0.034700
     51 H22          3.9360     0.0100     7.0390 ha         1 8LY       0.158000
     52 H23          1.4880     0.2100     6.9050 h4         1 8LY       0.030100
     53 F1          -0.6950     0.0030     3.5620 f          1 8LY      -0.105900
@<TRIPOS>BOND
     1    21     8 ar
     2    21     9 ar
     3     8    20 ar
     4    22     9 2
     5    22    23 1
     6     9    14 ar
     7    23    10 1
     8    23    27 1
     9    20     7 ar
    10    10    11 1
    11    16     1 ar
    12    16    15 ar
    13    14     7 ar
    14    14    27 2
    15    53    15 1
    16     1     2 ar
    17     7     6 1
    18    15     4 ar
    19     2    17 1
    20     2     3 ar
    21    11    12 1
    22    11    13 1
    23    12    24 1
    24     4     3 ar
    25     4    18 1
    26     5    18 ar
    27     5    19 ar
    28     6    19 1
    29    13    26 1
    30    18    30 ar
    31    19    28 ar
    32    24    25 1
    33    26    25 1
    34    30    29 ar
    35    28    29 ar
    36     1    31 1
    37     3    32 1
    38     5    33 1
    39     6    34 1
    40     8    35 1
    41    10    36 1
    42    10    37 1
    43    11    38 1
    44    12    39 1
    45    12    40 1
    46    13    41 1
    47    13    42 1
    48    16    43 1
    49    20    44 1
    50    22    45 1
    51    24    46 1
    52    24    47 1
    53    25    48 1
    54    26    49 1
    55    26    50 1
    56    28    51 1
    57    29    52 1
@<TRIPOS>SUBSTRUCTURE
     1 8LY         1 TEMP              0 ****  ****    0 ROOT
