@<TRIPOS>MOLECULE
8LZ
   31    33     1     0     0
SMALL
bcc


@<TRIPOS>ATOM
      1 C4           0.0000     0.0000     0.0000 ca         1 8LZ      -0.063000
      2 C5           1.3820     0.0000     0.0000 ca         1 8LZ      -0.188300
      3 C6           2.0750     0.0000     1.1960 ca         1 8LZ      -0.123000
      4 C7           1.3890    -0.0010     2.3960 ca         1 8LZ      -0.075000
      5 C8           2.1340    -0.0010    -1.3060 c3         1 8LZ       0.037800
      6 C9           4.5270     0.0850    -1.4150 c3         1 8LZ      -0.021200
      7 C10          4.0580    -1.1470    -2.2270 c3         1 8LZ      -0.025400
      8 C11          2.6620    -1.4190    -1.6070 c3         1 8LZ      -0.024400
      9 N            3.3050     0.8910    -1.2110 ny         1 8LZ       0.010000
     10 C3          -0.6950     0.0000     1.2000 ca         1 8LZ       0.097100
     11 O           -2.0560     0.0120     1.1840 os         1 8LZ      -0.290900
     12 C2           0.0020    -0.0020     2.4030 ca         1 8LZ       0.116100
     13 O1          -0.6600    -0.0090     3.5920 os         1 8LZ      -0.283900
     14 C1          -2.0400     0.3680     3.5620 c3         1 8LZ       0.167400
     15 C           -2.7170    -0.3650     2.3970 c3         1 8LZ       0.172400
     16 H1          -0.5410     0.0000    -0.9390 ha         1 8LZ       0.128000
     17 H2           3.1590    -0.0000     1.1920 ha         1 8LZ       0.093000
     18 H3           1.9350    -0.0010     3.3320 ha         1 8LZ       0.134000
     19 H4           1.4870     0.3280    -2.1110 hx         1 8LZ       0.083700
     20 H5           4.9350    -0.2280    -0.4610 hx         1 8LZ       0.079200
     21 H6           5.2600     0.6490    -1.9790 hx         1 8LZ       0.079200
     22 H8           3.9710    -0.9050    -3.2800 hc         1 8LZ       0.057700
     23 H7           4.7210    -1.9890    -2.0690 hc         1 8LZ       0.057700
     24 H9           2.7570    -1.9930    -0.6930 hc         1 8LZ       0.063200
     25 H10          2.0200    -1.9230    -2.3190 hc         1 8LZ       0.063200
     26 H11          3.3310     1.3150    -0.3050 hn         1 8LZ       0.247800
     27 H12          3.2480     1.5970    -1.9180 hn         1 8LZ       0.247800
     28 H13         -2.1220     1.4380     3.4150 h1         1 8LZ       0.039200
     29 H14         -2.5150     0.0850     4.4940 h1         1 8LZ       0.039200
     30 H16         -2.6080    -1.4330     2.5410 h1         1 8LZ       0.040700
     31 H15         -3.7550    -0.0590     2.3430 h1         1 8LZ       0.040700
@<TRIPOS>BOND
     1     1     2 ar  
     2     1    10 ar  
     3     1    16 1   
     4     2     3 ar  
     5     2     5 1   
     6     3     4 ar  
     7     3    17 1   
     8     4    12 ar  
     9     4    18 1   
    10     5     8 1   
    11     5     9 1   
    12     5    19 1   
    13     6     7 1   
    14     6     9 1   
    15     6    20 1   
    16     6    21 1   
    17     7     8 1   
    18     7    22 1   
    19     7    23 1   
    20     8    24 1   
    21     8    25 1   
    22     9    26 1   
    23     9    27 1   
    24    10    11 1   
    25    10    12 ar  
    26    11    15 1   
    27    12    13 1   
    28    13    14 1   
    29    14    15 1   
    30    14    28 1   
    31    14    29 1   
    32    15    30 1   
    33    15    31 1   
@<TRIPOS>SUBSTRUCTURE
     1 8LZ         1 TEMP              0 ****  ****    0 ROOT
