@<TRIPOS>MOLECULE
molecule
   31    33     1     0     0
SMALL
bcc


@<TRIPOS>ATOM
      1 C4           0.0000     0.0000     0.0000 ca         1 8LZ      -0.093000
      2 C5           1.3820     0.0000     0.0000 ca         1 8LZ      -0.171300
      3 C6           2.0750     0.0000     1.1960 ca         1 8LZ      -0.148000
      4 C7           1.3890    -0.0010     2.3960 ca         1 8LZ      -0.103000
      5 C8           2.1340    -0.0010    -1.3060 c3         1 8LZ       0.175800
      6 C9           4.5270     0.0850    -1.4150 c3         1 8LZ       0.096800
      7 C10          4.0580    -1.1470    -2.2270 c3         1 8LZ      -0.101400
      8 C11          2.6620    -1.4190    -1.6070 c3         1 8LZ      -0.089400
      9 N            3.3050     0.8910    -1.2110 ny         1 8LZ      -0.740000
     10 C3          -0.6950     0.0000     1.2000 ca         1 8LZ       0.088100
     11 O           -2.0560     0.0120     1.1840 os         1 8LZ      -0.310900
     12 C2           0.0020    -0.0020     2.4030 ca         1 8LZ       0.105100
     13 O1          -0.6600    -0.0090     3.5920 os         1 8LZ      -0.303900
     14 C1          -2.0400     0.3680     3.5620 c3         1 8LZ       0.093400
     15 C           -2.7170    -0.3650     2.3970 c3         1 8LZ       0.098400
     16 H1          -0.5410     0.0000    -0.9390 ha         1 8LZ       0.158000
     17 H2           3.1590    -0.0000     1.1920 ha         1 8LZ       0.117000
     18 H3           1.9350    -0.0010     3.3320 ha         1 8LZ       0.169000
     19 H4           1.4870     0.3280    -2.1110 hx         1 8LZ       0.110700
     20 H5           4.9350    -0.2280    -0.4610 hx         1 8LZ       0.107700
     21 H6           5.2600     0.6490    -1.9790 hx         1 8LZ       0.107700
     22 H8           3.9710    -0.9050    -3.2800 hc         1 8LZ       0.094200
     23 H7           4.7210    -1.9890    -2.0690 hc         1 8LZ       0.094200
     24 H9           2.7570    -1.9930    -0.6930 hc         1 8LZ       0.098200
     25 H10          2.0200    -1.9230    -2.3190 hc         1 8LZ       0.098200
     26 H11          3.3310     1.3150    -0.3050 hn         1 8LZ       0.452800
     27 H12          3.2480     1.5970    -1.9180 hn         1 8LZ       0.452800
     28 H13         -2.1220     1.4380     3.4150 h1         1 8LZ       0.085200
     29 H14         -2.5150     0.0850     4.4940 h1         1 8LZ       0.085200
     30 H16         -2.6080    -1.4330     2.5410 h1         1 8LZ       0.086700
     31 H15         -3.7550    -0.0590     2.3430 h1         1 8LZ       0.086700
@<TRIPOS>BOND
     1     7     8 1
     2     7     6 1
     3     8     5 1
     4     5     2 1
     5     5     9 1
     6     6     9 1
     7     2     3 ar
     8     2     1 ar
     9     3     4 ar
    10     1    10 ar
    11     4    12 ar
    12    10    12 ar
    13    10    11 1
    14    12    13 1
    15    11    15 1
    16    15    14 1
    17    13    14 1
    18     1    16 1
    19     3    17 1
    20     4    18 1
    21     5    19 1
    22     6    20 1
    23     6    21 1
    24     7    22 1
    25     7    23 1
    26     8    24 1
    27     8    25 1
    28     9    26 1
    29     9    27 1
    30    14    28 1
    31    14    29 1
    32    15    30 1
    33    15    31 1
@<TRIPOS>SUBSTRUCTURE
     1 8LZ         1 TEMP              0 ****  ****    0 ROOT
