@<TRIPOS>MOLECULE
molecule
   61    65     1     0     0
SMALL
bcc


@<TRIPOS>ATOM
      1 C5           0.0000     0.0000     0.0000 c3         1 8M1       0.102700
      2 C7           1.5300     0.0000     0.0000 c3         1 8M1      -0.106900
      3 C8           2.0390     0.0000     1.4420 c3         1 8M1      -0.095400
      4 C17          2.4080    -4.7790     5.5330 ca         1 8M1      -0.342600
      5 C20          3.3560    -4.7500     8.1370 ca         1 8M1      -0.089000
      6 C21          3.2250    -3.5640     7.4780 ca         1 8M1      -0.194300
      7 C22          2.7480    -3.5530     6.1600 ca         1 8M1       0.496600
      8 C24         -0.0570    -0.9850    -2.2770 ca         1 8M1       0.051600
      9 C26          0.0260    -1.8680    -4.5050 ca         1 8M1      -0.111500
     10 C28          1.1510    -3.0120    -2.7030 ca         1 8M1      -0.111500
     11 C1          -1.9210     1.9310    -0.7960 c3         1 8M1      -0.171100
     12 C2          -1.3540     0.9490    -1.7900 c          1 8M1       0.666100
     13 O3          -1.6790     1.0130    -2.9560 o          1 8M1      -0.598100
     14 N4          -0.4890     0.0000    -1.3810 n          1 8M1      -0.368000
     15 C9           1.5300    -1.2500     2.1630 c3         1 8M1       0.247500
     16 C11         -0.0000    -1.2500     2.1630 c3         1 8M1      -0.095400
     17 C12         -0.5100    -1.2490     0.7210 c3         1 8M1      -0.106900
     18 N13          2.0190    -1.2500     3.5440 nu         1 8M1      -0.894900
     19 C14          2.1510    -2.4430     4.2310 ca         1 8M1       0.944900
     20 N15          1.8260    -3.5770     3.6110 nb         1 8M1      -0.793000
     21 C16          1.9310    -4.7450     4.2100 ca         1 8M1       0.524200
     22 C18          2.5490    -5.9800     6.2430 ca         1 8M1      -0.076000
     23 C19          3.0150    -5.9540     7.5220 ca         1 8M1      -0.156000
     24 N23          2.6030    -2.4150     5.4690 nb         1 8M1      -0.803000
     25 C25         -0.4000    -0.8980    -3.6200 ca         1 8M1      -0.176500
     26 C27          0.7980    -2.9340    -4.0490 ca         1 8M1      -0.012000
     27 C29          0.7190    -2.0430    -1.8210 ca         1 8M1      -0.176500
     28 C30          1.2470    -3.9860    -4.9970 cc         1 8M1      -0.258300
     29 C31          2.0270    -5.1150    -4.6790 cc         1 8M1       0.344200
     30 N32          2.2120    -5.8020    -5.7740 nd         1 8M1      -0.513800
     31 N33          1.5630    -5.1450    -6.8270 na         1 8M1       0.065400
     32 C34          1.5250    -5.5870    -8.2230 c3         1 8M1       0.063600
     33 C35          0.9720    -4.0380    -6.3320 cd         1 8M1      -0.102300
     34 H1          -0.3590     0.8830     0.5150 h1         1 8M1       0.067700
     35 H2           1.8900     0.8860    -0.5090 hc         1 8M1       0.065450
     36 H3           1.8900    -0.8860    -0.5090 hc         1 8M1       0.065450
     37 H4           1.6750     0.8830     1.9520 hc         1 8M1       0.052200
     38 H5           3.1230    -0.0020     1.4410 hc         1 8M1       0.052200
     39 H6           3.7250    -4.7570     9.1550 ha         1 8M1       0.133000
     40 H7           3.4940    -2.6370     7.9690 ha         1 8M1       0.150000
     41 H8          -0.2460    -1.8040    -5.5510 ha         1 8M1       0.129000
     42 H9           1.7540    -3.8390    -2.3470 ha         1 8M1       0.129000
     43 H10         -2.4220     1.3920    -0.0010 hc         1 8M1       0.063700
     44 H11         -1.1180     2.5260    -0.3780 hc         1 8M1       0.063700
     45 H12         -2.6300     2.5820    -1.2940 hc         1 8M1       0.063700
     46 H13          1.8900    -2.1320     1.6480 h1         1 8M1       0.080700
     47 H14         -0.3600    -2.1370     2.6710 hc         1 8M1       0.052200
     48 H15         -0.3600    -0.3640     2.6730 hc         1 8M1       0.052200
     49 H16         -0.1470    -2.1330     0.2110 hc         1 8M1       0.065450
     50 H17         -1.5940    -1.2460     0.7230 hc         1 8M1       0.065450
     51 H18          2.2620    -0.3870     3.9900 hn         1 8M1       0.457800
     52 H19          1.6630    -5.6580     3.6940 h4         1 8M1       0.031100
     53 H20          2.2870    -6.9230     5.7770 ha         1 8M1       0.131000
     54 H21          3.1290    -6.8830     8.0680 ha         1 8M1       0.132000
     55 H22         -1.0010    -0.0690    -3.9740 ha         1 8M1       0.177500
     56 H23          0.9920    -2.1030    -0.7750 ha         1 8M1       0.177500
     57 H24          2.4080    -5.3690    -3.6970 h4         1 8M1       0.049100
     58 H25          1.9590    -4.8230    -8.8560 h1         1 8M1       0.054700
     59 H26          2.0900    -6.5060    -8.3260 h1         1 8M1       0.054700
     60 H27          0.4970    -5.7610    -8.5190 h1         1 8M1       0.054700
     61 H28          0.3910    -3.3170    -6.8940 h4         1 8M1       0.173000
@<TRIPOS>BOND
     1    11    12 1   
     2    13    12 2   
     3    12    14 1   
     4    14     8 1   
     5    14     1 1   
     6    27     8 ar  
     7    27    10 ar  
     8     8    25 ar  
     9    10    26 ar  
    10    25     9 ar  
    11     1     2 1   
    12     1    17 1   
    13     2     3 1   
    14    26     9 ar  
    15    26    28 1   
    16    33    28 2   
    17    33    31 1   
    18    28    29 1   
    19    32    31 1   
    20    31    30 1   
    21    29    30 2   
    22     3    15 1   
    23    17    16 1   
    24    16    15 1   
    25    15    18 1   
    26    18    19 1   
    27    24    19 ar  
    28    24     7 ar  
    29    19    20 ar  
    30     6     7 ar  
    31     6     5 ar  
    32     7     4 ar  
    33    20    21 ar  
    34     5    23 ar  
    35     4    21 ar  
    36     4    22 ar  
    37    23    22 ar  
    38     1    34 1   
    39     2    35 1   
    40     2    36 1   
    41     3    37 1   
    42     3    38 1   
    43     5    39 1   
    44     6    40 1   
    45     9    41 1   
    46    10    42 1   
    47    11    43 1   
    48    11    44 1   
    49    11    45 1   
    50    15    46 1   
    51    16    47 1   
    52    16    48 1   
    53    17    49 1   
    54    17    50 1   
    55    18    51 1   
    56    21    52 1   
    57    22    53 1   
    58    23    54 1   
    59    25    55 1   
    60    27    56 1   
    61    29    57 1   
    62    32    58 1   
    63    32    59 1   
    64    32    60 1   
    65    33    61 1   
@<TRIPOS>SUBSTRUCTURE
     1 8M1         1 TEMP              0 ****  ****    0 ROOT
