@<TRIPOS>MOLECULE
molecule
   16    16     1     0     0
SMALL
bcc


@<TRIPOS>ATOM
      1 C4           0.0000     0.0000     0.0000 cc         1 8M2      -0.115100
      2 S1           1.7040     0.0000     0.0000 ss         1 8M2       0.362200
      3 C5           1.7800     0.0000     1.7530 cd         1 8M2      -0.080100
      4 C3           0.5570     0.0010     2.2720 cc         1 8M2      -0.099000
      5 C1          -0.4830     0.0060     1.2700 cc         1 8M2      -0.308900
      6 C2          -1.9210     0.0080     1.5920 ce         1 8M2       0.497800
      7 N2          -2.7900     0.5900     0.7640 nz         1 8M2      -0.781600
      8 N1          -2.3550    -0.5730     2.7120 nv         1 8M2      -0.354100
      9 HC4         -0.6150     0.0010    -0.8920 h4         1 8M2       0.194000
     10 HC5          2.6960    -0.0020     2.3310 h4         1 8M2       0.242000
     11 HC3          0.3610     0.0030     3.3370 ha         1 8M2       0.189000
     12 HN21        -3.6050     0.8650     1.2740 hn         1 8M2       0.508800
     13 HN22        -3.0490    -0.0570     0.0450 hn         1 8M2       0.508800
     14 HN1         -3.3320    -0.5720     2.9310 hn         1 8M2       0.363700
     15 H1          -1.7040    -1.0110     3.3340 hn         1 8M2       0.363700
     16 H23         -2.3680     1.3970     0.3500 hn         1 8M2       0.508800
@<TRIPOS>BOND
     1     4     3 2
     2     4     5 1
     3     3     2 1
     4     8     6 2
     5     6     7 1
     6     6     5 1
     7     5     1 2
     8     2     1 1
     9     1     9 1
    10     3    10 1
    11     4    11 1
    12     7    12 1
    13     7    13 1
    14     8    14 1
    15     8    15 1
    16    16     7 1
@<TRIPOS>SUBSTRUCTURE
     1 8M2         1 TEMP              0 ****  ****    0 ROOT
