@<TRIPOS>MOLECULE
8M2
   16    16     1     0     0
SMALL
bcc


@<TRIPOS>ATOM
      1 C4           0.0000     0.0000     0.0000 cc         1 8M2       0.032900
      2 S1           1.7040     0.0000     0.0000 ss         1 8M2       0.140200
      3 C5           1.7800     0.0000     1.7530 cc         1 8M2       0.068900
      4 C3           0.5570     0.0010     2.2720 cd         1 8M2      -0.085000
      5 C1          -0.4830     0.0060     1.2700 cd         1 8M2      -0.312900
      6 C2          -1.9210     0.0080     1.5920 cf         1 8M2       0.032800
      7 N2          -2.7900     0.5900     0.7640 nz         1 8M2       0.163400
      8 N1          -2.3550    -0.5730     2.7120 nv         1 8M2       0.359900
      9 HC4         -0.6150     0.0010    -0.8920 h4         1 8M2       0.160000
     10 HC5          2.6960    -0.0020     2.3310 h4         1 8M2       0.201000
     11 HC3          0.3610     0.0030     3.3370 ha         1 8M2       0.148000
     12 HN21        -3.6050     0.8650     1.2740 hn         1 8M2       0.254800
     13 HN22        -2.3680     1.3970     0.3500 hn         1 8M2       0.254800
     14 HN1         -1.7040    -1.0100     3.3340 hn         1 8M2       0.161700
     15 H1          -3.3310    -0.5710     2.9310 hn         1 8M2       0.161700
     16 H23         -3.0490    -0.0570     0.0450 hn         1 8M2       0.254800
@<TRIPOS>BOND
     1     1     2 1   
     2     1     5 2   
     3     1     9 1   
     4     2     3 1   
     5     3     4 2   
     6     3    10 1   
     7     4     5 1   
     8     4    11 1   
     9     5     6 1   
    10     6     7 1   
    11     6     8 2   
    12     7    12 1   
    13     7    13 1   
    14     7    16 1   
    15     8    14 1   
    16     8    15 1   
@<TRIPOS>SUBSTRUCTURE
     1 8M2         1 TEMP              0 ****  ****    0 ROOT
