@<TRIPOS>MOLECULE
8M4
   62    65     1     0     0
SMALL
bcc


@<TRIPOS>ATOM
      1 C11          0.0000     0.0000     0.0000 ca         1 8M4       0.366600
      2 C13         -1.7140    -1.1810    -1.3470 c3         1 8M4      -0.049700
      3 C14         -2.5570    -1.1110    -2.6220 c3         1 8M4      -0.024900
      4 C17         -1.8960    -3.6730    -1.3640 c3         1 8M4      -0.023400
      5 C19          1.3860     0.0000     0.0000 ca         1 8M4      -0.212300
      6 C21          1.3270     0.0010     2.3820 ca         1 8M4      -0.161300
      7 O01         -4.8110    -0.1600     9.3560 o          1 8M4      -0.882800
      8 C03         -4.4720     0.3010     6.9800 ca         1 8M4      -0.061600
      9 C04         -3.2440    -0.3680     6.9870 ca         1 8M4      -0.092000
     10 C05         -2.5020    -0.4590     5.8290 ca         1 8M4      -0.101000
     11 C06         -2.9680     0.1140     4.6530 ca         1 8M4      -0.207400
     12 N07         -2.2130     0.0190     3.4840 ns         1 8M4       0.019900
     13 C09         -0.0640     0.0070     2.3060 ca         1 8M4       0.329800
     14 N10         -0.6750     0.0050     1.1280 nb         1 8M4      -0.568000
     15 C12         -0.7420    -0.0000    -1.3110 c3         1 8M4      -0.066700
     16 C15         -3.5280    -2.2920    -2.6580 c3         1 8M4      -0.023400
     17 C16         -2.7380    -3.6020    -2.6390 c3         1 8M4      -0.025400
     18 C18         -0.9240    -2.4920    -1.3290 c3         1 8M4      -0.024900
     19 C20          2.0660     0.0000     1.2090 ca         1 8M4      -0.084000
     20 O22         -0.3120     0.0140     4.6320 o          1 8M4      -0.641100
     21 C23         -4.1950     0.7850     4.6380 ca         1 8M4      -0.012400
     22 N24         -4.6640     1.3610     3.4530 nu         1 8M4      -0.251000
     23 C25         -5.8110     2.1620     3.4710 ca         1 8M4      -0.001400
     24 C26         -6.0070     3.0730     4.5000 ca         1 8M4      -0.104500
     25 C27         -7.1400     3.8640     4.5170 ca         1 8M4      -0.146500
     26 C28         -8.0800     3.7480     3.5040 ca         1 8M4       0.108100
     27 O29         -9.1960     4.5270     3.5210 os         1 8M4      -0.309900
     28 C30        -10.1230     4.3560     2.4470 c3         1 8M4       0.244700
     29 C31         -7.8850     2.8390     2.4750 ca         1 8M4      -0.146500
     30 C32         -6.7520     2.0510     2.4550 ca         1 8M4      -0.104500
     31 C33         -4.9460     0.8740     5.7960 ca         1 8M4      -0.154000
     32 O34         -6.3330     0.9790     8.2110 o          1 8M4      -0.882800
     33 H1          -2.3670    -1.1440    -0.4830 hc         1 8M4       0.049700
     34 H141        -1.9050    -1.1540    -3.4870 hc         1 8M4       0.013950
     35 H2          -3.1170    -0.1840    -2.6320 hc         1 8M4       0.013950
     36 H3          -1.3360    -4.6000    -1.3540 hc         1 8M4       0.014200
     37 H171        -2.5470    -3.6290    -0.5000 hc         1 8M4       0.014200
     38 H191         1.9330    -0.0030    -0.9350 ha         1 8M4       0.111000
     39 H211         1.8250     0.0010     3.3450 ha         1 8M4       0.139000
     40 H041        -2.8770    -0.8160     7.9020 ha         1 8M4       0.134000
     41 H051        -1.5510    -0.9780     5.8370 ha         1 8M4       0.130000
     42 H071        -2.6700    -0.1020     2.6020 hn         1 8M4       0.164500
     43 H121        -0.0350    -0.0890    -2.1260 hc         1 8M4       0.021700
     44 H122        -1.2950     0.9260    -1.4120 hc         1 8M4       0.021700
     45 H5          -4.1770    -2.2510    -1.7910 hc         1 8M4       0.014200
     46 H151        -4.1220    -2.2430    -3.5630 hc         1 8M4       0.014200
     47 H6          -2.0860    -3.6420    -3.5040 hc         1 8M4       0.009200
     48 H161        -3.4270    -4.4380    -2.6620 hc         1 8M4       0.009200
     49 H181        -0.3310    -2.5410    -0.4240 hc         1 8M4       0.013950
     50 H7          -0.2760    -2.5330    -2.1950 hc         1 8M4       0.013950
     51 H201         3.1490    -0.0020     1.2360 ha         1 8M4       0.107000
     52 H241        -4.1730     1.2080     2.5940 hn         1 8M4       0.269800
     53 H261        -5.2720     3.1630     5.2910 ha         1 8M4       0.121000
     54 H271        -7.2920     4.5750     5.3200 ha         1 8M4       0.112500
     55 H302       -10.9590     5.0310     2.5810 h1         1 8M4      -0.008967
     56 H301        -9.6300     4.5730     1.5070 h1         1 8M4      -0.008967
     57 H303       -10.4810     3.3330     2.4390 h1         1 8M4      -0.008967
     58 H311        -8.6200     2.7510     1.6840 ha         1 8M4       0.112500
     59 H321        -6.6000     1.3410     1.6500 ha         1 8M4       0.121000
     60 H331        -5.8970     1.3930     5.7870 ha         1 8M4       0.152000
     61 C08         -0.8660     0.0140     3.5510 c          1 8M4       0.451600
     62 C02         -5.2670     0.3970     8.2180 c          1 8M4       0.970200
@<TRIPOS>BOND
     1     1     5 ar  
     2     1    14 ar  
     3     1    15 1   
     4     2     3 1   
     5     2    15 1   
     6     2    18 1   
     7     2    33 1   
     8     3    16 1   
     9     3    34 1   
    10     3    35 1   
    11     4    17 1   
    12     4    18 1   
    13     4    36 1   
    14     4    37 1   
    15     5    19 ar  
    16     5    38 1   
    17     6    13 ar  
    18     6    19 ar  
    19     6    39 1   
    20     7    62 1   
    21     8     9 ar  
    22     8    31 ar  
    23     8    62 1   
    24     9    10 ar  
    25     9    40 1   
    26    10    11 ar  
    27    10    41 1   
    28    11    12 1   
    29    11    21 ar  
    30    12    42 1   
    31    12    61 1   
    32    13    14 ar  
    33    13    61 1   
    34    15    43 1   
    35    15    44 1   
    36    16    17 1   
    37    16    45 1   
    38    16    46 1   
    39    17    47 1   
    40    17    48 1   
    41    18    49 1   
    42    18    50 1   
    43    19    51 1   
    44    20    61 2   
    45    21    22 1   
    46    21    31 ar  
    47    22    23 1   
    48    22    52 1   
    49    23    24 ar  
    50    23    30 ar  
    51    24    25 ar  
    52    24    53 1   
    53    25    26 ar  
    54    25    54 1   
    55    26    27 1   
    56    26    29 ar  
    57    27    28 1   
    58    28    55 1   
    59    28    56 1   
    60    28    57 1   
    61    29    30 ar  
    62    29    58 1   
    63    30    59 1   
    64    31    60 1   
    65    32    62 1   
@<TRIPOS>SUBSTRUCTURE
     1 8M4         1 TEMP              0 ****  ****    0 ROOT
