@<TRIPOS>MOLECULE
molecule
   62    65     1     0     0
SMALL
bcc


@<TRIPOS>ATOM
      1 C11          0.0000     0.0000     0.0000 ca         1 8M4       0.423600
      2 C13         -1.7140    -1.1810    -1.3470 c3         1 8M4      -0.064700
      3 C14         -2.5570    -1.1110    -2.6220 c3         1 8M4      -0.075900
      4 C17         -1.8960    -3.6730    -1.3640 c3         1 8M4      -0.078400
      5 C19          1.3860     0.0000     0.0000 ca         1 8M4      -0.243300
      6 C21          1.3270     0.0010     2.3820 ca         1 8M4      -0.199300
      7 O01         -4.8110    -0.1600     9.3560 o          1 8M4      -0.834800
      8 C03         -4.4720     0.3010     6.9800 ca         1 8M4      -0.072600
      9 C04         -3.2440    -0.3680     6.9870 ca         1 8M4      -0.121000
     10 C05         -2.5020    -0.4590     5.8290 ca         1 8M4      -0.123000
     11 C06         -2.9680     0.1140     4.6530 ca         1 8M4      -0.051400
     12 N07         -2.2130     0.0190     3.4840 ns         1 8M4      -0.441100
     13 C09         -0.0640     0.0070     2.3060 ca         1 8M4       0.387800
     14 N10         -0.6750     0.0050     1.1280 nb         1 8M4      -0.690000
     15 C12         -0.7420    -0.0000    -1.3110 c3         1 8M4      -0.121700
     16 C15         -3.5280    -2.2920    -2.6580 c3         1 8M4      -0.078400
     17 C16         -2.7380    -3.6020    -2.6390 c3         1 8M4      -0.080400
     18 C18         -0.9240    -2.4920    -1.3290 c3         1 8M4      -0.075900
     19 C20          2.0660     0.0000     1.2090 ca         1 8M4      -0.105000
     20 O22         -0.3120     0.0140     4.6320 o          1 8M4      -0.594100
     21 C23         -4.1950     0.7850     4.6380 ca         1 8M4       0.132600
     22 N24         -4.6640     1.3610     3.4530 nu         1 8M4      -0.696000
     23 C25         -5.8110     2.1620     3.4710 ca         1 8M4       0.147600
     24 C26         -6.0070     3.0730     4.5000 ca         1 8M4      -0.131000
     25 C27         -7.1400     3.8640     4.5170 ca         1 8M4      -0.164000
     26 C28         -8.0800     3.7480     3.5040 ca         1 8M4       0.100100
     27 O29         -9.1960     4.5270     3.5210 os         1 8M4      -0.333900
     28 C30        -10.1230     4.3560     2.4470 c3         1 8M4       0.132700
     29 C31         -7.8850     2.8390     2.4750 ca         1 8M4      -0.164000
     30 C32         -6.7520     2.0510     2.4550 ca         1 8M4      -0.131000
     31 C33         -4.9460     0.8740     5.7960 ca         1 8M4      -0.165000
     32 O34         -6.3330     0.9790     8.2110 o          1 8M4      -0.834800
     33 H1          -2.3670    -1.1440    -0.4830 hc         1 8M4       0.074700
     34 H141        -1.9050    -1.1540    -3.4870 hc         1 8M4       0.039700
     35 H2          -3.1170    -0.1840    -2.6320 hc         1 8M4       0.039700
     36 H3          -1.3360    -4.6000    -1.3540 hc         1 8M4       0.042200
     37 H171        -2.5470    -3.6290    -0.5000 hc         1 8M4       0.042200
     38 H191         1.9330    -0.0030    -0.9350 ha         1 8M4       0.133000
     39 H211         1.8250     0.0010     3.3450 ha         1 8M4       0.166000
     40 H041        -2.8770    -0.8160     7.9020 ha         1 8M4       0.160000
     41 H051        -1.5510    -0.9780     5.8370 ha         1 8M4       0.146000
     42 H071        -2.6700    -0.1020     2.6020 hn         1 8M4       0.323500
     43 H121        -0.0350    -0.0890    -2.1260 hc         1 8M4       0.052700
     44 H122        -1.2950     0.9260    -1.4120 hc         1 8M4       0.052700
     45 H5          -4.1770    -2.2510    -1.7910 hc         1 8M4       0.042200
     46 H151        -4.1220    -2.2430    -3.5630 hc         1 8M4       0.042200
     47 H6          -2.0860    -3.6420    -3.5040 hc         1 8M4       0.036200
     48 H161        -3.4270    -4.4380    -2.6620 hc         1 8M4       0.036200
     49 H181        -0.3310    -2.5410    -0.4240 hc         1 8M4       0.039700
     50 H7          -0.2760    -2.5330    -2.1950 hc         1 8M4       0.039700
     51 H201         3.1490    -0.0020     1.2360 ha         1 8M4       0.137000
     52 H241        -4.1730     1.2080     2.5940 hn         1 8M4       0.429800
     53 H261        -5.2720     3.1630     5.2910 ha         1 8M4       0.145500
     54 H271        -7.2920     4.5750     5.3200 ha         1 8M4       0.134500
     55 H302       -10.9590     5.0310     2.5810 h1         1 8M4       0.032700
     56 H301        -9.6300     4.5730     1.5070 h1         1 8M4       0.032700
     57 H303       -10.4810     3.3330     2.4390 h1         1 8M4       0.032700
     58 H311        -8.6200     2.7510     1.6840 ha         1 8M4       0.134500
     59 H321        -6.6000     1.3410     1.6500 ha         1 8M4       0.145500
     60 H331        -5.8970     1.3930     5.7870 ha         1 8M4       0.166000
     61 C08         -0.8660     0.0140     3.5510 c          1 8M4       0.563600
     62 C02         -5.2670     0.3970     8.2180 c          1 8M4       0.881200
@<TRIPOS>BOND
     1    32    62 1
     2     7    62 1
     3    62     8 1
     4     8     9 ar
     5     8    31 ar
     6     9    10 ar
     7    31    21 ar
     8    10    11 ar
     9    21    11 ar
    10    21    22 1
    11    11    12 1
    12    22    23 1
    13    24    23 ar
    14    24    25 ar
    15    23    30 ar
    16    25    26 ar
    17    30    29 ar
    18    26    29 ar
    19    26    27 1
    20    27    28 1
    21    20    61 2
    22    12    61 1
    23    61    13 1
    24    13    14 ar
    25    13     6 ar
    26    14     1 ar
    27     6    19 ar
    28    16    17 1
    29    16     3 1
    30     4    17 1
    31     4    18 1
    32     2     3 1
    33     2    18 1
    34     2    15 1
    35     1    15 1
    36     1     5 ar
    37    19     5 ar
    38     2    33 1
    39     3    34 1
    40     3    35 1
    41     4    36 1
    42     4    37 1
    43     5    38 1
    44     6    39 1
    45     9    40 1
    46    10    41 1
    47    12    42 1
    48    15    43 1
    49    15    44 1
    50    16    45 1
    51    16    46 1
    52    17    47 1
    53    17    48 1
    54    18    49 1
    55    18    50 1
    56    19    51 1
    57    22    52 1
    58    24    53 1
    59    25    54 1
    60    28    55 1
    61    28    56 1
    62    28    57 1
    63    29    58 1
    64    30    59 1
    65    31    60 1
@<TRIPOS>SUBSTRUCTURE
     1 8M4         1 TEMP              0 ****  ****    0 ROOT
