@<TRIPOS>MOLECULE
8M5
   33    35     1     0     0
SMALL
bcc


@<TRIPOS>ATOM
      1 C1           0.0000     0.0000     0.0000 ca         1 8M5      -0.085000
      2 C2           1.3780     0.0000     0.0000 ca         1 8M5      -0.104000
      3 C3           2.0720     0.0000     1.2050 ca         1 8M5      -0.229200
      4 C4           1.3550     0.0010     2.4130 ca         1 8M5      -0.041800
      5 C5          -0.0370     0.0000     2.3980 ca         1 8M5      -0.037000
      6 C6          -0.7070     0.0000     1.1930 ca         1 8M5      -0.126000
      7 C15          3.5840     0.0000     2.8650 cc         1 8M5      -0.230100
      8 N19          3.4140     0.0000     1.5210 na         1 8M5       0.422600
      9 C24          1.8500    -0.8670     7.6330 ca         1 8M5      -0.121000
     10 C25          1.6210    -0.9740     8.9910 ca         1 8M5      -0.082500
     11 C26          2.4520    -0.3290     9.8870 ca         1 8M5      -0.119000
     12 C27          3.5150     0.4270     9.4280 ca         1 8M5      -0.082500
     13 C28          3.7510     0.5380     8.0710 ca         1 8M5      -0.121000
     14 C29          2.9170    -0.1090     7.1690 ca         1 8M5      -0.082400
     15 N35          3.1520     0.0020     5.7940 ns         1 8M5      -0.043100
     16 O37          0.9750     0.0020     5.3510 o          1 8M5      -0.643100
     17 CAE          2.3680     0.0000     3.4840 cd         1 8M5      -0.230400
     18 H1          -0.5360     0.0000    -0.9410 ha         1 8M5       0.101000
     19 H2           1.9200    -0.0000    -0.9380 ha         1 8M5       0.099000
     20 H6          -1.7900     0.0000     1.1780 ha         1 8M5       0.105000
     21 H5          -0.5920     0.0000     3.3280 ha         1 8M5       0.129000
     22 H15          4.5420    -0.0000     3.3720 h4         1 8M5       0.137000
     23 H181         5.4560    -0.0040     1.0600 h1         1 8M5       0.020700
     24 H182         4.4330     0.8840    -0.0790 h1         1 8M5       0.020700
     25 H183         4.4300    -0.8850    -0.0800 h1         1 8M5       0.020700
     26 H25          0.7880    -1.5650     9.3530 ha         1 8M5       0.101500
     27 H26          2.2690    -0.4140    10.9520 ha         1 8M5       0.101000
     28 H27          4.1650     0.9320    10.1330 ha         1 8M5       0.101500
     29 H28          4.5840     1.1300     7.7120 ha         1 8M5       0.121500
     30 H35          4.0900     0.0770     5.4520 hn         1 8M5       0.163500
     31 C18          4.5040    -0.0010     0.5420 c3         1 8M5      -0.014400
     32 C33          2.1170     0.0020     4.9300 c          1 8M5       0.625300
     33 H24          1.1980    -1.3730     6.9310 ha         1 8M5       0.121500
@<TRIPOS>BOND
     1     1     2 ar  
     2     1     6 ar  
     3     1    18 1   
     4     2     3 ar  
     5     2    19 1   
     6     3     4 ar  
     7     3     8 1   
     8     4     5 ar  
     9     4    17 1   
    10     5     6 ar  
    11     5    21 1   
    12     6    20 1   
    13     7     8 1   
    14     7    17 2   
    15     7    22 1   
    16     8    31 1   
    17     9    10 ar  
    18     9    14 ar  
    19     9    33 1   
    20    10    11 ar  
    21    10    26 1   
    22    11    12 ar  
    23    11    27 1   
    24    12    13 ar  
    25    12    28 1   
    26    13    14 ar  
    27    13    29 1   
    28    14    15 1   
    29    15    30 1   
    30    15    32 1   
    31    16    32 2   
    32    17    32 1   
    33    23    31 1   
    34    24    31 1   
    35    25    31 1   
@<TRIPOS>SUBSTRUCTURE
     1 8M5         1 TEMP              0 ****  ****    0 ROOT
