@<TRIPOS>MOLECULE
molecule
   33    35     1     0     0
SMALL
bcc


@<TRIPOS>ATOM
      1 C1           0.0000     0.0000     0.0000 ca         1 8M5      -0.108000
      2 C2           1.3780     0.0000     0.0000 ca         1 8M5      -0.142000
      3 C3           2.0720     0.0000     1.2050 ca         1 8M5      -0.048200
      4 C4           1.3550     0.0010     2.4130 ca         1 8M5      -0.054800
      5 C5          -0.0370     0.0000     2.3980 ca         1 8M5      -0.068000
      6 C6          -0.7070     0.0000     1.1930 ca         1 8M5      -0.153000
      7 C15          3.5840     0.0000     2.8650 cc         1 8M5      -0.063100
      8 N19          3.4140     0.0000     1.5210 na         1 8M5      -0.056400
      9 C24          1.8500    -0.8670     7.6330 ca         1 8M5      -0.146500
     10 C25          1.6210    -0.9740     8.9910 ca         1 8M5      -0.111500
     11 C26          2.4520    -0.3290     9.8870 ca         1 8M5      -0.148000
     12 C27          3.5150     0.4270     9.4280 ca         1 8M5      -0.111500
     13 C28          3.7510     0.5380     8.0710 ca         1 8M5      -0.146500
     14 C29          2.9170    -0.1090     7.1690 ca         1 8M5       0.061600
     15 N35          3.1520     0.0020     5.7940 ns         1 8M5      -0.481100
     16 O37          0.9750     0.0020     5.3510 o          1 8M5      -0.598100
     17 CAE          2.3680     0.0000     3.4840 cd         1 8M5      -0.226400
     18 H1          -0.5360     0.0000    -0.9410 ha         1 8M5       0.131000
     19 H2           1.9200    -0.0000    -0.9380 ha         1 8M5       0.125000
     20 H6          -1.7900     0.0000     1.1780 ha         1 8M5       0.133000
     21 H5          -0.5920     0.0000     3.3280 ha         1 8M5       0.158000
     22 H15          4.5420    -0.0000     3.3720 h4         1 8M5       0.161000
     23 H181         5.4560    -0.0040     1.0600 h1         1 8M5       0.052700
     24 H182         4.4330     0.8840    -0.0790 h1         1 8M5       0.052700
     25 H183         4.4300    -0.8850    -0.0800 h1         1 8M5       0.052700
     26 H25          0.7880    -1.5650     9.3530 ha         1 8M5       0.131000
     27 H26          2.2690    -0.4140    10.9520 ha         1 8M5       0.128000
     28 H27          4.1650     0.9320    10.1330 ha         1 8M5       0.131000
     29 H28          4.5840     1.1300     7.7120 ha         1 8M5       0.144000
     30 H35          4.0900     0.0770     5.4520 hn         1 8M5       0.316500
     31 C18          4.5040    -0.0010     0.5420 c3         1 8M5       0.034600
     32 C33          2.1170     0.0020     4.9300 c          1 8M5       0.707300
     33 H24          1.1980    -1.3730     6.9310 ha         1 8M5       0.144000
@<TRIPOS>BOND
     1     1     2 ar
     2     1     6 ar
     3     2     3 ar
     4     3     4 ar
     5     3     8 1
     6     4     5 ar
     7     4    17 1
     8     5     6 ar
     9     7     8 1
    10     7    17 2
    11    31     8 1
    12     9    10 ar
    13     9    14 ar
    14    10    11 ar
    15    11    12 ar
    16    12    13 ar
    17    13    14 ar
    18    14    15 1
    19    32    15 1
    20    32    16 2
    21    32    17 1
    22     1    18 1
    23     2    19 1
    24     6    20 1
    25     5    21 1
    26     7    22 1
    27    31    23 1
    28    31    24 1
    29    31    25 1
    30     9    33 1
    31    10    26 1
    32    11    27 1
    33    12    28 1
    34    13    29 1
    35    15    30 1
@<TRIPOS>SUBSTRUCTURE
     1 8M5         1 TEMP              0 ****  ****    0 ROOT
