@<TRIPOS>MOLECULE
8M7
   56    57     1     0     0
SMALL
bcc


@<TRIPOS>ATOM
      1 C1           0.0000     0.0000     0.0000 c3         1 8M7      -0.024400
      2 C2           1.5300     0.0000     0.0000 c3         1 8M7      -0.008100
      3 C3          -0.5110     0.0000     1.4420 c3         1 8M7      -0.118700
      4 C4           0.0870    -1.1650     2.1870 c          1 8M7       0.598100
      5 C5           0.6070    -3.5390     2.3740 c3         1 8M7      -0.004600
      6 C6           0.8130    -4.6830     1.3720 c3         1 8M7       0.161100
      7 C7           1.3270    -5.9150     2.1240 c3         1 8M7       0.129100
      8 C8           0.3030    -6.3260     3.1850 c3         1 8M7       0.166100
      9 C9           0.8310    -7.5340     3.9620 c3         1 8M7       0.223400
     10 C10         -0.2520    -4.0510     3.5100 c2         1 8M7       0.437600
     11 C11         -3.0160    -3.0730     5.2090 c          1 8M7       0.640100
     12 C12         -4.9730    -2.7820     6.5310 ca         1 8M7      -0.085400
     13 O1           0.7040    -0.9780     3.2130 o          1 8M7      -0.641100
     14 O2           1.7700    -4.2890     0.3870 oh         1 8M7      -0.578800
     15 O3           1.5170    -6.9900     1.2030 oh         1 8M7      -0.583800
     16 N1          -0.0650    -2.4170     1.7120 ns         1 8M7      -0.176900
     17 N2          -1.2790    -3.3860     3.9160 n2         1 8M7      -0.319200
     18 N3          -3.8080    -3.4910     6.2160 ns         1 8M7      -0.000100
     19 O4          -0.1730    -7.9900     4.8720 oh         1 8M7      -0.583800
     20 O5           0.0910    -5.2330     4.0860 os         1 8M7      -0.397400
     21 O6          -1.9590    -3.8160     4.8330 os         1 8M7      -0.125600
     22 O7          -3.2560    -2.0250     4.6420 o          1 8M7      -0.594000
     23 C13         -5.7090    -2.1700     5.5240 ca         1 8M7      -0.113500
     24 C14         -6.8570    -1.4700     5.8380 ca         1 8M7      -0.081500
     25 C15         -7.2750    -1.3770     7.1540 ca         1 8M7      -0.112000
     26 C16         -6.5430    -1.9850     8.1580 ca         1 8M7      -0.081500
     27 C17         -5.3970    -2.6920     7.8500 ca         1 8M7      -0.113500
     28 C18         -0.1030     1.3060     2.1270 c3         1 8M7      -0.024400
     29 C19         -0.8090     2.4810     1.4470 c3         1 8M7      -0.008100
     30 H12         -0.3610    -0.8840    -0.5110 hc         1 8M7       0.023700
     31 H11         -0.3610     0.8840    -0.5110 hc         1 8M7       0.023700
     32 H22          1.8910    -0.2390     0.9930 hc         1 8M7       0.005533
     33 H21          1.8910    -0.7410    -0.7030 hc         1 8M7       0.005533
     34 H23          1.8910     0.9790    -0.2900 hc         1 8M7       0.005533
     35 H31         -1.5900    -0.0860     1.4430 hc         1 8M7       0.046700
     36 H51          1.5670    -3.2190     2.7610 h1         1 8M7       0.080700
     37 H61         -0.1310    -4.9190     0.8950 h1         1 8M7       0.017700
     38 H71          2.2670    -5.6750     2.6060 h1         1 8M7       0.029700
     39 H81         -0.6320    -6.5810     2.7020 h1         1 8M7       0.032700
     40 H92          1.0770    -8.3290     3.2690 h1         1 8M7      -0.000300
     41 H91          1.7170    -7.2490     4.5150 h1         1 8M7      -0.000300
     42 H25          1.5520    -4.6850    -0.4400 ho         1 8M7       0.400000
     43 H33          2.4370    -7.1870     1.1360 ho         1 8M7       0.401000
     44 H13         -0.6440    -2.5820     0.9120 hn         1 8M7       0.175500
     45 H32         -3.5700    -4.3150     6.7320 hn         1 8M7       0.169500
     46 H41          0.0850    -8.8220     5.2330 ho         1 8M7       0.390000
     47 H131        -5.3820    -2.2420     4.4940 ha         1 8M7       0.121500
     48 H141        -7.4310    -0.9930     5.0540 ha         1 8M7       0.103500
     49 H151        -8.1740    -0.8250     7.3980 ha         1 8M7       0.103000
     50 H161        -6.8740    -1.9120     9.1870 ha         1 8M7       0.103500
     51 H171        -4.8250    -3.1670     8.6380 ha         1 8M7       0.121500
     52 H182         0.9700     1.4350     2.0490 hc         1 8M7       0.023700
     53 H181        -0.3870     1.2700     3.1720 hc         1 8M7       0.023700
     54 H192        -1.7580     2.1480     1.0440 hc         1 8M7       0.005533
     55 H193        -0.9800     3.2680     2.1720 hc         1 8M7       0.005533
     56 H191        -0.1890     2.8590     0.6430 hc         1 8M7       0.005533
@<TRIPOS>BOND
     1     1     2 1   
     2     1     3 1   
     3     1    30 1   
     4     1    31 1   
     5     2    32 1   
     6     2    33 1   
     7     2    34 1   
     8     3     4 1   
     9     3    28 1   
    10     3    35 1   
    11     4    13 2   
    12     4    16 1   
    13     5     6 1   
    14     5    10 1   
    15     5    16 1   
    16     5    36 1   
    17     6     7 1   
    18     6    14 1   
    19     6    37 1   
    20     7     8 1   
    21     7    15 1   
    22     7    38 1   
    23     8     9 1   
    24     8    20 1   
    25     8    39 1   
    26     9    19 1   
    27     9    40 1   
    28     9    41 1   
    29    10    17 2   
    30    10    20 1   
    31    11    18 1   
    32    11    21 1   
    33    11    22 2   
    34    12    18 1   
    35    12    23 ar  
    36    12    27 ar  
    37    14    42 1   
    38    15    43 1   
    39    16    44 1   
    40    17    21 1   
    41    18    45 1   
    42    19    46 1   
    43    23    24 ar  
    44    23    47 1   
    45    24    25 ar  
    46    24    48 1   
    47    25    26 ar  
    48    25    49 1   
    49    26    27 ar  
    50    26    50 1   
    51    27    51 1   
    52    28    29 1   
    53    28    52 1   
    54    28    53 1   
    55    29    54 1   
    56    29    55 1   
    57    29    56 1   
@<TRIPOS>SUBSTRUCTURE
     1 8M7         1 TEMP              0 ****  ****    0 ROOT
