@<TRIPOS>MOLECULE
molecule
   56    57     1     0     0
SMALL
bcc


@<TRIPOS>ATOM
      1 C1           0.0000     0.0000     0.0000 c3         1 8M7      -0.073400
      2 C2           1.5300     0.0000     0.0000 c3         1 8M7      -0.096600
      3 C3          -0.5110     0.0000     1.4420 c3         1 8M7      -0.140700
      4 C4           0.0870    -1.1650     2.1870 c          1 8M7       0.682100
      5 C5           0.6070    -3.5390     2.3740 c3         1 8M7       0.103400
      6 C6           0.8130    -4.6830     1.3720 c3         1 8M7       0.121100
      7 C7           1.3270    -5.9150     2.1240 c3         1 8M7       0.086100
      8 C8           0.3030    -6.3260     3.1850 c3         1 8M7       0.147100
      9 C9           0.8310    -7.5340     3.9620 c3         1 8M7       0.150400
     10 C10         -0.2520    -4.0510     3.5100 c2         1 8M7       0.505600
     11 C11         -3.0160    -3.0730     5.2090 c          1 8M7       0.749100
     12 C12         -4.9730    -2.7820     6.5310 ca         1 8M7       0.072600
     13 O1           0.7040    -0.9780     3.2130 o          1 8M7      -0.600100
     14 O2           1.7700    -4.2890     0.3870 oh         1 8M7      -0.593800
     15 O3           1.5170    -6.9900     1.2030 oh         1 8M7      -0.603800
     16 N1          -0.0650    -2.4170     1.7120 ns         1 8M7      -0.568900
     17 N2          -1.2790    -3.3860     3.9160 n2         1 8M7      -0.411200
     18 N3          -3.8080    -3.4910     6.2160 ns         1 8M7      -0.460100
     19 O4          -0.1730    -7.9900     4.8720 oh         1 8M7      -0.597800
     20 O5           0.0910    -5.2330     4.0860 os         1 8M7      -0.425400
     21 O6          -1.9590    -3.8160     4.8330 os         1 8M7      -0.131600
     22 O7          -3.2560    -2.0250     4.6420 o          1 8M7      -0.546000
     23 C13         -5.7090    -2.1700     5.5240 ca         1 8M7      -0.141500
     24 C14         -6.8570    -1.4700     5.8380 ca         1 8M7      -0.110500
     25 C15         -7.2750    -1.3770     7.1540 ca         1 8M7      -0.143000
     26 C16         -6.5430    -1.9850     8.1580 ca         1 8M7      -0.110500
     27 C17         -5.3970    -2.6920     7.8500 ca         1 8M7      -0.141500
     28 C18         -0.1030     1.3060     2.1270 c3         1 8M7      -0.073400
     29 C19         -0.8090     2.4810     1.4470 c3         1 8M7      -0.096600
     30 H12         -0.3610     0.8840    -0.5110 hc         1 8M7       0.050450
     31 H11         -0.3610    -0.8840    -0.5110 hc         1 8M7       0.050450
     32 H22          1.8910    -0.7680    -0.6730 hc         1 8M7       0.036200
     33 H21          1.8910     0.9670    -0.3290 hc         1 8M7       0.036200
     34 H23          1.8910    -0.1990     1.0020 hc         1 8M7       0.036200
     35 H31         -1.5900    -0.0860     1.4430 hc         1 8M7       0.073700
     36 H51          1.5670    -3.2190     2.7610 h1         1 8M7       0.115700
     37 H61         -0.1310    -4.9190     0.8950 h1         1 8M7       0.052700
     38 H71          2.2670    -5.6750     2.6060 h1         1 8M7       0.063700
     39 H81         -0.6320    -6.5810     2.7020 h1         1 8M7       0.070700
     40 H92          1.7170    -7.2490     4.5150 h1         1 8M7       0.037700
     41 H91          1.0770    -8.3290     3.2690 h1         1 8M7       0.037700
     42 H25          1.6100    -4.7610    -0.4130 ho         1 8M7       0.415000
     43 H33          2.4360    -7.1960     1.1470 ho         1 8M7       0.415000
     44 H13         -0.6550    -2.5840     0.9210 hn         1 8M7       0.318500
     45 H32         -3.5690    -4.3150     6.7320 hn         1 8M7       0.336500
     46 H41          0.0790    -8.8270     5.2240 ho         1 8M7       0.404000
     47 H131        -5.3820    -2.2420     4.4940 ha         1 8M7       0.145500
     48 H141        -7.4310    -0.9930     5.0540 ha         1 8M7       0.133000
     49 H151        -8.1740    -0.8250     7.3980 ha         1 8M7       0.130000
     50 H161        -6.8740    -1.9120     9.1870 ha         1 8M7       0.133000
     51 H171        -4.8250    -3.1670     8.6380 ha         1 8M7       0.145500
     52 H182         0.9700     1.4350     2.0490 hc         1 8M7       0.050450
     53 H181        -0.3870     1.2700     3.1720 hc         1 8M7       0.050450
     54 H192        -1.7580     2.1480     1.0430 hc         1 8M7       0.036200
     55 H193        -0.1880     2.8600     0.6440 hc         1 8M7       0.036200
     56 H191        -0.9810     3.2670     2.1720 hc         1 8M7       0.036200
@<TRIPOS>BOND
     1    25    26 ar
     2    25    24 ar
     3    26    27 ar
     4    24    23 ar
     5    27    12 ar
     6    23    12 ar
     7    12    18 1
     8    18    11 1
     9    22    11 2
    10    11    21 1
    11    21    17 1
    12     1     2 1
    13     1     3 1
    14    17    10 2
    15    13     4 2
    16    10    20 1
    17    10     5 1
    18     3    28 1
    19     3     4 1
    20    28    29 1
    21     4    16 1
    22    20     8 1
    23    16     5 1
    24     5     6 1
    25    19     9 1
    26     9     8 1
    27     8     7 1
    28     6     7 1
    29     6    14 1
    30     7    15 1
    31     1    30 1
    32     1    31 1
    33     2    32 1
    34     2    33 1
    35     2    34 1
    36     3    35 1
    37     5    36 1
    38     6    37 1
    39     7    38 1
    40     8    39 1
    41     9    40 1
    42     9    41 1
    43    14    42 1
    44    15    43 1
    45    16    44 1
    46    18    45 1
    47    19    46 1
    48    23    47 1
    49    24    48 1
    50    25    49 1
    51    26    50 1
    52    27    51 1
    53    28    52 1
    54    28    53 1
    55    29    54 1
    56    29    55 1
    57    29    56 1
@<TRIPOS>SUBSTRUCTURE
     1 8M7         1 TEMP              0 ****  ****    0 ROOT
