@<TRIPOS>MOLECULE
molecule
   22    23     1     0     0
SMALL
bcc


@<TRIPOS>ATOM
      1 C4           0.0000     0.0000     0.0000 cc         1 8M8      -0.004100
      2 C5          -0.8250    -0.0000    -1.1700 cg         1 8M8       0.270800
      3 C6           1.4190     0.0070     3.7120 cd         1 8M8       0.654500
      4 N1           2.6690     0.0100     4.2000 nc         1 8M8      -0.743000
      5 C7           2.6330     0.0190     5.5050 cd         1 8M8       0.386400
      6 N2           1.3440     0.0220     5.8950 na         1 8M8      -0.191400
      7 N3           0.5730     0.0150     4.7220 nc         1 8M8      -0.477800
      8 N           -1.4680     0.0130    -2.1080 n1         1 8M8      -0.357800
      9 C1           1.3660     0.0000     0.0000 cc         1 8M8      -0.085300
     10 C            2.1790    -0.0010    -1.2700 c3         1 8M8      -0.040800
     11 S           -0.5910     0.0080     1.6560 ss         1 8M8      -0.021800
     12 C3           1.0530     0.0040     2.2800 cd         1 8M8      -0.064600
     13 C2           1.9380     0.0000     1.2440 cc         1 8M8      -0.034300
     14 H2           3.3340     0.4330     6.2200 h5         1 8M8       0.063100
     15 H3           3.8590     0.0340     2.4460 hc         1 8M8       0.054367
     16 H4           3.8160     0.9710     1.1650 hc         1 8M8       0.054367
     17 H5           4.1660    -0.7090     1.0860 hc         1 8M8       0.054367
     18 H6           3.0310    -0.5780    -0.9310 hc         1 8M8       0.067033
     19 H7           1.4530    -0.4010    -1.9670 hc         1 8M8       0.067033
     20 H8           2.1610     1.0490    -1.5350 hc         1 8M8       0.067033
     21 H1           1.5300     0.2360     6.8550 hn         1 8M8       0.355700
     22 C8           3.4320    -0.0010     1.4510 c3         1 8M8      -0.075800
@<TRIPOS>BOND
     1    22    13 1
     2    10     9 1
     3    13     9 1
     4    13    12 2
     5     9     1 2
     6     4     5 2
     7     4     3 1
     8    12     3 1
     9    12    11 1
    10     1     2 1
    11     1    11 1
    12     5     6 1
    13     3     7 2
    14     2     8 3
    15     6     7 1
    16     5    14 1
    17    22    15 1
    18    22    16 1
    19    22    17 1
    20    10    18 1
    21    10    19 1
    22    10    20 1
    23     6    21 1
@<TRIPOS>SUBSTRUCTURE
     1 8M8         1 TEMP              0 ****  ****    0 ROOT
