@<TRIPOS>MOLECULE
molecule
   37    39     1     0     0
SMALL
bcc


@<TRIPOS>ATOM
      1 C10          0.0000     0.0000     0.0000 c3         1 8M9       0.019000
      2 C13          0.0640    -3.3830     1.6700 ca         1 8M9       0.133100
      3 C15         -1.6320    -3.2960    -0.0130 ca         1 8M9       0.418200
      4 N01          3.1620     0.0000     0.2290 nb         1 8M9      -0.819000
      5 C02          4.4640     0.0000     0.0000 ca         1 8M9       0.992900
      6 N03          4.9720     0.0040    -1.2280 nb         1 8M9      -0.804000
      7 C04          4.1870     0.0070    -2.2920 ca         1 8M9       0.656300
      8 C05          2.8010     0.0060    -2.1020 ca         1 8M9      -0.525500
      9 C06          2.2980     0.0030    -0.7820 ca         1 8M9       0.556800
     10 C07          1.6400     0.0090    -2.9820 cc         1 8M9       0.419800
     11 N08          0.5750     0.0070    -2.2320 nd         1 8M9      -0.496100
     12 N09          0.9400     0.0040    -0.8810 na         1 8M9       0.007200
     13 C11         -0.3240    -1.4300     0.3470 ca         1 8M9       0.377600
     14 C12          0.3870    -2.0690     1.3420 ca         1 8M9      -0.196600
     15 C14         -0.9690    -4.0030     0.9690 ca         1 8M9      -0.215600
     16 N16         -1.2990    -2.0500    -0.2910 nb         1 8M9      -0.670000
     17 C19          0.2300    -3.9390     3.9730 c3         1 8M9       0.137700
     18 Cl1          4.8620     0.0120    -3.8910 cl         1 8M9      -0.139000
     19 N22          5.3310    -0.0020     1.0790 nv         1 8M9      -1.000500
     20 H1           0.3410     0.5070     0.8940 h1         1 8M9       0.084700
     21 H2          -0.8690     0.5120    -0.3970 h1         1 8M9       0.084700
     22 H3          -2.4380    -3.7700    -0.5610 h4         1 8M9       0.026100
     23 H4           2.3600    -2.0080     2.1410 hc         1 8M9       0.059367
     24 H5           1.7730    -0.4610     1.5130 hc         1 8M9       0.059367
     25 H6           1.1660    -1.0770     3.0570 hc         1 8M9       0.059367
     26 H7          -1.8950    -5.8450     0.4390 hc         1 8M9       0.048033
     27 H8          -1.9840    -5.4460     2.1600 hc         1 8M9       0.048033
     28 H9          -0.4600    -6.0110     1.4610 hc         1 8M9       0.048033
     29 H10          1.6580     0.0120    -4.0650 h4         1 8M9       0.070800
     30 H11          0.9930    -3.5260     4.6210 h1         1 8M9       0.037367
     31 H12         -0.6460    -3.3030     3.9950 h1         1 8M9       0.037367
     32 H13         -0.0360    -4.9320     4.3160 h1         1 8M9       0.037367
     33 H14          5.1150     0.5380     1.8940 hn         1 8M9       0.453300
     34 H15          6.2050    -0.4850     1.0170 hn         1 8M9       0.453300
     35 O18          0.7400    -4.0440     2.6430 os         1 8M9      -0.347900
     36 C17          1.5000    -1.3530     2.0640 c3         1 8M9      -0.065800
     37 C20         -1.3540    -5.4260     1.2790 c3         1 8M9      -0.042800
@<TRIPOS>BOND
     1    37    15 1   
     2    17    35 1   
     3     3    15 ar  
     4     3    16 ar  
     5    15     2 ar  
     6    16    13 ar  
     7     2    35 1   
     8     2    14 ar  
     9    13    14 ar  
    10    13     1 1   
    11    14    36 1   
    12     1    12 1   
    13    12    11 1   
    14    12     9 1   
    15     4     9 ar  
    16     4     5 ar  
    17    11    10 2   
    18     9     8 ar  
    19    19     5 1   
    20     5     6 ar  
    21    10     8 1   
    22     8     7 ar  
    23     6     7 ar  
    24     7    18 1   
    25     1    20 1   
    26     1    21 1   
    27     3    22 1   
    28    36    23 1   
    29    36    24 1   
    30    36    25 1   
    31    37    26 1   
    32    37    27 1   
    33    37    28 1   
    34    10    29 1   
    35    17    30 1   
    36    17    31 1   
    37    17    32 1   
    38    19    33 1   
    39    19    34 1   
@<TRIPOS>SUBSTRUCTURE
     1 8M9         1 TEMP              0 ****  ****    0 ROOT
