@<TRIPOS>MOLECULE
8M9
   37    39     1     0     0
SMALL
bcc


@<TRIPOS>ATOM
      1 C10          0.0000     0.0000     0.0000 c3         1 8M9      -0.098000
      2 C13          0.0640    -3.3830     1.6700 ca         1 8M9       0.139100
      3 C15         -1.6320    -3.2960    -0.0130 ca         1 8M9       0.397200
      4 N01          3.1620     0.0000     0.2290 nb         1 8M9      -0.699000
      5 C02          4.4640     0.0000     0.0000 ca         1 8M9       0.746900
      6 N03          4.9720     0.0040    -1.2280 nb         1 8M9      -0.695000
      7 C04          4.1870     0.0070    -2.2920 ca         1 8M9       0.556300
      8 C05          2.8010     0.0060    -2.1020 ca         1 8M9      -0.551500
      9 C06          2.2980     0.0030    -0.7820 ca         1 8M9       0.342800
     10 C07          1.6400     0.0090    -2.9820 cc         1 8M9       0.488800
     11 N08          0.5750     0.0070    -2.2320 nd         1 8M9      -0.646100
     12 N09          0.9400     0.0040    -0.8810 na         1 8M9       0.456200
     13 C11         -0.3240    -1.4300     0.3470 ca         1 8M9       0.315600
     14 C12          0.3870    -2.0690     1.3420 ca         1 8M9      -0.189600
     15 C14         -0.9690    -4.0030     0.9690 ca         1 8M9      -0.217600
     16 N16         -1.2990    -2.0500    -0.2910 nb         1 8M9      -0.545000
     17 C19          0.2300    -3.9390     3.9730 c3         1 8M9       0.256700
     18 Cl1          4.8620     0.0120    -3.8910 cl         1 8M9      -0.071000
     19 N22          5.3310    -0.0020     1.0790 nv         1 8M9      -0.522500
     20 H1           0.3410     0.5070     0.8940 h1         1 8M9       0.059200
     21 H2          -0.8690     0.5120    -0.3970 h1         1 8M9       0.059200
     22 H3          -2.4380    -3.7700    -0.5610 h4         1 8M9      -0.013900
     23 H4           2.3600    -2.0080     2.1410 hc         1 8M9       0.032700
     24 H5           1.7730    -0.4610     1.5130 hc         1 8M9       0.032700
     25 H6           1.1660    -1.0770     3.0570 hc         1 8M9       0.032700
     26 H7          -1.8950    -5.8450     0.4390 hc         1 8M9       0.012367
     27 H8          -1.9840    -5.4460     2.1600 hc         1 8M9       0.012367
     28 H9          -0.4600    -6.0110     1.4610 hc         1 8M9       0.012367
     29 H10          1.6580     0.0120    -4.0650 h4         1 8M9       0.018800
     30 H11          0.9930    -3.5260     4.6210 h1         1 8M9      -0.007300
     31 H12         -0.6460    -3.3030     3.9950 h1         1 8M9      -0.007300
     32 H13         -0.0360    -4.9320     4.3160 h1         1 8M9      -0.007300
     33 H14          5.1150     0.5380     1.8940 hn         1 8M9       0.277300
     34 H15          6.2050    -0.4850     1.0170 hn         1 8M9       0.277300
     35 O18          0.7400    -4.0440     2.6430 os         1 8M9      -0.329900
     36 C17          1.5000    -1.3530     2.0640 c3         1 8M9       0.006200
     37 C20         -1.3540    -5.4260     1.2790 c3         1 8M9       0.070200
@<TRIPOS>BOND
     1     1    12 1   
     2     1    13 1   
     3     1    20 1   
     4     1    21 1   
     5     2    14 ar  
     6     2    15 ar  
     7     2    35 1   
     8     3    15 ar  
     9     3    16 ar  
    10     3    22 1   
    11     4     5 ar  
    12     4     9 ar  
    13     5     6 ar  
    14     5    19 1   
    15     6     7 ar  
    16     7     8 ar  
    17     7    18 1   
    18     8     9 ar  
    19     8    10 1   
    20     9    12 1   
    21    10    11 2   
    22    10    29 1   
    23    11    12 1   
    24    13    14 ar  
    25    13    16 ar  
    26    14    36 1   
    27    15    37 1   
    28    17    30 1   
    29    17    31 1   
    30    17    32 1   
    31    17    35 1   
    32    19    33 1   
    33    19    34 1   
    34    23    36 1   
    35    24    36 1   
    36    25    36 1   
    37    26    37 1   
    38    27    37 1   
    39    28    37 1   
@<TRIPOS>SUBSTRUCTURE
     1 8M9         1 TEMP              0 ****  ****    0 ROOT
