@<TRIPOS>MOLECULE
8MA
   58    61     1     0     0
SMALL
bcc


@<TRIPOS>ATOM
      1 C10          0.0000     0.0000     0.0000 c3         1 8MA      -0.023400
      2 C13          1.5290     1.2480     2.1650 c3         1 8MA      -0.024900
      3 C17          2.3570    -6.0310     3.0850 ca         1 8MA      -0.175400
      4 C20          1.5730    -8.4020     4.2990 ca         1 8MA      -0.064600
      5 C21          1.8450    -8.3690     2.9280 ca         1 8MA      -0.114000
      6 C22          2.2340    -7.1910     2.3290 ca         1 8MA      -0.089000
      7 C28          1.3970    -3.9610     7.2910 ca         1 8MA      -0.120500
      8 C01          4.9710    -3.6260    -0.2330 ca         1 8MA      -0.161300
      9 C02          5.4120    -2.4310    -0.7770 ca         1 8MA      -0.084000
     10 C03          4.9520    -1.2440    -0.2270 ca         1 8MA      -0.211300
     11 C04          4.0720    -1.2870     0.8420 ca         1 8MA       0.367600
     12 N05          3.6700    -2.4360     1.3400 nb         1 8MA      -0.569000
     13 C06          4.0860    -3.5940     0.8430 ca         1 8MA       0.330800
     14 C07          3.5690     0.0000     1.4430 c3         1 8MA      -0.066700
     15 C08          2.0390     0.0000     1.4430 c3         1 8MA      -0.049700
     16 C09          1.5290     0.0000     0.0000 c3         1 8MA      -0.024900
     17 C11         -0.5110     1.2480     0.7220 c3         1 8MA      -0.024400
     18 C12         -0.0010     1.2480     2.1640 c3         1 8MA      -0.023400
     19 C14          3.6030    -4.8640     1.4330 c          1 8MA       0.451600
     20 O15          3.9760    -5.9260     0.9790 o          1 8MA      -0.631100
     21 N16          2.7460    -4.8390     2.4740 ns         1 8MA       0.007900
     22 C18          2.0880    -6.0560     4.4570 ca         1 8MA      -0.020400
     23 C19          1.6980    -7.2370     5.0620 ca         1 8MA      -0.148000
     24 C23          1.1580    -9.6630     4.9400 c          1 8MA       0.969200
     25 O24          1.0400   -10.7860     4.2030 o          1 8MA      -0.881300
     26 O25          0.9220    -9.6900     6.1310 o          1 8MA      -0.881300
     27 N26          2.2130    -4.8880     5.2160 nu         1 8MA      -0.249000
     28 C27          2.1020    -4.9440     6.6090 ca         1 8MA       0.023600
     29 C29          1.2940    -4.0150     8.6670 ca         1 8MA      -0.105000
     30 C30          1.8920    -5.0500     9.3670 ca         1 8MA       0.056900
     31 C31          2.5940    -6.0320     8.6890 ca         1 8MA      -0.105000
     32 C32          2.6960    -5.9840     7.3130 ca         1 8MA      -0.120500
     33 F33          1.7900    -5.1010    10.7140 f          1 8MA      -0.140900
     34 H102        -0.3600    -0.8840     0.5120 hc         1 8MA       0.014200
     35 H101        -0.3600     0.0030    -1.0220 hc         1 8MA       0.014200
     36 H132         1.8890     2.1320     1.6520 hc         1 8MA       0.014450
     37 H131         1.8880     1.2450     3.1860 hc         1 8MA       0.014450
     38 H211         1.7460    -9.2700     2.3350 ha         1 8MA       0.135000
     39 H221         2.0290    -7.4210     1.2900 ha         1 8MA       0.122000
     40 H011         5.3100    -4.5720    -0.6370 ha         1 8MA       0.139000
     41 H021         6.1000    -2.4230    -1.6140 ha         1 8MA       0.107000
     42 H031         5.2770    -0.2920    -0.6300 ha         1 8MA       0.111000
     43 H072         3.9300     0.8370     0.8580 hc         1 8MA       0.021700
     44 H071         3.9300     0.0890     2.4610 hc         1 8MA       0.021700
     45 H081         1.6730    -0.8830     1.9520 hc         1 8MA       0.049700
     46 H091         1.8890    -0.8860    -0.5090 hc         1 8MA       0.014450
     47 H092         1.8890     0.8860    -0.5090 hc         1 8MA       0.014450
     48 H111        -1.5940     1.2450     0.7230 hc         1 8MA       0.009700
     49 H112        -0.1480     2.1330     0.2130 hc         1 8MA       0.009700
     50 H121        -0.3610     2.1340     2.6740 hc         1 8MA       0.014200
     51 H122        -0.3610     0.3610     2.6730 hc         1 8MA       0.014200
     52 H161         2.3610    -3.9680     2.7840 hn         1 8MA       0.164500
     53 H191         1.4170    -7.2420     6.1080 ha         1 8MA       0.149000
     54 H261         2.4060    -4.0150     4.7650 hn         1 8MA       0.272800
     55 H291         0.7450    -3.2480     9.1990 ha         1 8MA       0.112500
     56 H311         3.0590    -6.8410     9.2390 ha         1 8MA       0.112500
     57 H321         3.2460    -6.7530     6.7840 ha         1 8MA       0.125000
     58 H281         0.9290    -3.1510     6.7450 ha         1 8MA       0.125000
@<TRIPOS>BOND
     1     1    16 1   
     2     1    17 1   
     3     1    34 1   
     4     1    35 1   
     5     2    15 1   
     6     2    18 1   
     7     2    36 1   
     8     2    37 1   
     9     3     6 ar  
    10     3    21 1   
    11     3    22 ar  
    12     4     5 ar  
    13     4    23 ar  
    14     4    24 1   
    15     5     6 ar  
    16     5    38 1   
    17     6    39 1   
    18     7    28 ar  
    19     7    29 ar  
    20     7    58 1   
    21     8     9 ar  
    22     8    13 ar  
    23     8    40 1   
    24     9    10 ar  
    25     9    41 1   
    26    10    11 ar  
    27    10    42 1   
    28    11    12 ar  
    29    11    14 1   
    30    12    13 ar  
    31    13    19 1   
    32    14    15 1   
    33    14    43 1   
    34    14    44 1   
    35    15    16 1   
    36    15    45 1   
    37    16    46 1   
    38    16    47 1   
    39    17    18 1   
    40    17    48 1   
    41    17    49 1   
    42    18    50 1   
    43    18    51 1   
    44    19    20 2   
    45    19    21 1   
    46    21    52 1   
    47    22    23 ar  
    48    22    27 1   
    49    23    53 1   
    50    24    25 1   
    51    24    26 1   
    52    27    28 1   
    53    27    54 1   
    54    28    32 ar  
    55    29    30 ar  
    56    29    55 1   
    57    30    31 ar  
    58    30    33 1   
    59    31    32 ar  
    60    31    56 1   
    61    32    57 1   
@<TRIPOS>SUBSTRUCTURE
     1 8MA         1 TEMP              0 ****  ****    0 ROOT
