@<TRIPOS>MOLECULE
molecule
   21    21     1     0     0
SMALL
bcc


@<TRIPOS>ATOM
      1 C4           0.0000     0.0000     0.0000 ca         1 8MB      -0.013800
      2 C5           1.3980     0.0000     0.0000 ca         1 8MB      -0.137500
      3 C6           2.0840     0.0000     1.1960 ca         1 8MB      -0.129000
      4 C7          -0.7400    -0.0070    -1.2720 ce         1 8MB      -0.182200
      5 C8          -0.0690    -0.0070    -2.4430 cf         1 8MB      -0.140200
      6 C9          -0.8040    -0.0130    -3.7070 c          1 8MB       0.865800
      7 O1          -0.1330    -0.0130    -4.8770 o          1 8MB      -0.839800
      8 O           -2.0200    -0.0180    -3.7030 o          1 8MB      -0.839800
      9 C3          -0.6920     0.0000     1.2150 ca         1 8MB      -0.137500
     10 C2           0.0080     0.0060     2.4030 ca         1 8MB      -0.129000
     11 C1           1.3920     0.0000     2.3940 ca         1 8MB      -0.122300
     12 C            2.1490    -0.0010     3.6980 c3         1 8MB      -0.038800
     13 H1           1.9410    -0.0000    -0.9370 ha         1 8MB       0.135500
     14 H2           3.1670    -0.0020     1.1980 ha         1 8MB       0.113500
     15 H3          -1.8240    -0.0120    -1.2690 ha         1 8MB       0.151000
     16 H4           1.0150    -0.0020    -2.4460 ha         1 8MB       0.104000
     17 H6          -1.7750     0.0020     1.2230 ha         1 8MB       0.135500
     18 H7          -0.5270     0.0060     3.3460 ha         1 8MB       0.113500
     19 H8           2.0870     0.9810     4.1520 hc         1 8MB       0.030367
     20 H9           3.1880    -0.2470     3.5120 hc         1 8MB       0.030367
     21 H10          1.7180    -0.7360     4.3660 hc         1 8MB       0.030367
@<TRIPOS>BOND
     1    12    11 1
     2     3    11 ar
     3     3     2 ar
     4    11    10 ar
     5     2     1 ar
     6    10     9 ar
     7     1     9 ar
     8     1     4 1
     9     5     4 2
    10     5     6 1
    11     8     6 1
    12     6     7 1
    13     2    13 1
    14     3    14 1
    15     4    15 1
    16     5    16 1
    17     9    17 1
    18    10    18 1
    19    12    19 1
    20    12    20 1
    21    12    21 1
@<TRIPOS>SUBSTRUCTURE
     1 8MB         1 TEMP              0 ****  ****    0 ROOT
