@<TRIPOS>MOLECULE
8MC
   26    28     1     0     0
SMALL
bcc


@<TRIPOS>ATOM
      1 C           0.3830    1.4350    0.4050 c         1 8MC      0.704600
      2 O           1.1790    1.9740    1.3810 os        1 8MC     -0.264200
      3 CA         -0.3090    0.1680    0.8600 c3        1 8MC     -0.169400
      4 C9          0.0590    0.0950    2.3540 c3        1 8MC      0.085800
      5 C10         1.1750    1.0700    2.4770 c2        1 8MC     -0.412100
      6 C1          2.3000    0.9150    3.2620 c2        1 8MC      0.465100
      7 O2          3.3150    1.5830    3.5190 o         1 8MC     -0.425000
      8 C8          0.4590   -1.2410    2.8670 ca        1 8MC     -0.145300
      9 C7         -0.2500   -2.3980    2.5490 ca        1 8MC     -0.091000
     10 C6          0.0990   -3.6320    3.0950 ca        1 8MC     -0.224000
     11 C5          1.1830   -3.6970    3.9790 ca        1 8MC      0.105100
     12 O4          1.5110   -4.8880    4.6280 os        1 8MC     -0.350900
     13 C11         1.8660   -5.9410    3.7410 c3        1 8MC      0.123700
     14 C4          1.9290   -2.5640    4.3090 ca        1 8MC     -0.193000
     15 C2          1.5640   -1.3250    3.7470 ca        1 8MC      0.197100
     16 O3          2.3240   -0.2550    4.1130 os        1 8MC     -0.383200
     17 H2          0.0850   -0.7070    0.2900 hc        1 8MC      0.060200
     18 H3         -1.4090    0.2430    0.6980 hc        1 8MC      0.060200
     19 H4         -0.8340    0.4390    2.9540 hc        1 8MC      0.036700
     20 H5         -1.1030   -2.3300    1.8570 ha        1 8MC      0.119000
     21 H6         -0.4710   -4.5350    2.8480 ha        1 8MC      0.120000
     22 H7          1.0110   -6.2010    3.0710 h1        1 8MC      0.029033
     23 H8          2.1090   -6.7970    4.4180 h1        1 8MC      0.029033
     24 H9          2.7570   -5.6560    3.1300 h1        1 8MC      0.029033
     25 H10         2.7800   -2.6260    5.0000 ha        1 8MC      0.151000
     26 OXT         0.3000    2.0510   -0.6620 o         1 8MC     -0.660500
@<TRIPOS>BOND
     1    1    2 1   
     2    1    3 1   
     3    1   26 2   
     4    2    5 1   
     5    3    4 1   
     6    3   17 1   
     7    3   18 1   
     8    4    5 1   
     9    4    8 1   
    10    4   19 1   
    11    5    6 2   
    12    6    7 1   
    13    6   16 1   
    14    8    9 ar  
    15    8   15 ar  
    16    9   10 ar  
    17    9   20 1   
    18   10   11 ar  
    19   10   21 1   
    20   11   12 1   
    21   11   14 ar  
    22   12   13 1   
    23   13   22 1   
    24   13   23 1   
    25   13   24 1   
    26   14   15 ar  
    27   14   25 1   
    28   15   16 1   
@<TRIPOS>SUBSTRUCTURE
     1 8MC         1 TEMP              0 ****  ****    0 ROOT
