@<TRIPOS>MOLECULE
molecule
   26    27     1     0     0
SMALL
bcc


@<TRIPOS>ATOM
      1 C            0.0000     0.0000     0.0000 c          1 8MC       0.892600
      2 O            1.2080     0.0000     0.0000 o          1 8MC      -0.831800
      3 CA          -0.7540     0.0000     1.3040 c3         1 8MC      -0.167200
      4 C9           0.2250     0.0010     2.4510 cc         1 8MC       0.105600
      5 C10          0.6010     1.1630     3.0470 cd         1 8MC      -0.320200
      6 C1           1.5170     1.1360     4.1180 c          1 8MC       0.750800
      7 O2           1.8460     2.1850     4.6430 o          1 8MC      -0.627500
      8 C8           0.7920    -1.2520     2.9560 ca         1 8MC      -0.157800
      9 C7           0.4430    -2.4820     2.3880 ca         1 8MC      -0.012000
     10 C6           0.9860    -3.6330     2.8780 ca         1 8MC      -0.256000
     11 C5           1.8880    -3.5920     3.9400 ca         1 8MC       0.164100
     12 O4           2.4200    -4.7470     4.4170 os         1 8MC      -0.334900
     13 C11          2.0110    -5.9600     3.7810 c3         1 8MC       0.131700
     14 C4           2.2460    -2.3840     4.5130 ca         1 8MC      -0.197000
     15 C2           1.7020    -1.2030     4.0280 ca         1 8MC       0.193100
     16 O3           2.0380    -0.0140     4.5730 os         1 8MC      -0.322200
     17 H2          -1.3760    -0.8850     1.3620 hc         1 8MC       0.049200
     18 H3          -1.3770     0.8840     1.3610 hc         1 8MC       0.049200
     19 H4           0.1370     2.0970     2.7530 ha         1 8MC       0.166000
     20 H5          -0.2580    -2.5200     1.5630 ha         1 8MC       0.162000
     21 H6           0.7150    -4.5850     2.4380 ha         1 8MC       0.130000
     22 H7           0.9380    -6.0730     3.8760 h1         1 8MC       0.038033
     23 H8           2.2790    -5.9260     2.7320 h1         1 8MC       0.038033
     24 H9           2.5060    -6.8000     4.2540 h1         1 8MC       0.038033
     25 H10          2.9480    -2.3600     5.3380 ha         1 8MC       0.150000
     26 OXT         -0.6700     0.0040    -1.1620 o          1 8MC      -0.831800
@<TRIPOS>BOND
     1    10     9 ar  
     2    10    11 ar  
     3     9     8 ar  
     4    12    11 1   
     5    12    13 1   
     6    11    14 ar  
     7     3     1 1   
     8     3     4 1   
     9     8     4 1   
    10     8    15 ar  
    11     1     2 1   
    12     4     5 2   
    13    14    15 ar  
    14    15    16 1   
    15     5     6 1   
    16    16     6 1   
    17     6     7 2   
    18     3    17 1   
    19     3    18 1   
    20     5    19 1   
    21     9    20 1   
    22    10    21 1   
    23    13    22 1   
    24    13    23 1   
    25    13    24 1   
    26    14    25 1   
    27     1    26 1   
@<TRIPOS>SUBSTRUCTURE
     1 8MC         1 TEMP              0 ****  ****    0 ROOT
