@<TRIPOS>MOLECULE
8ME
   42    44     1     0     0
SMALL
bcc


@<TRIPOS>ATOM
      1 CAI          0.0000     0.0000     0.0000 ca         1 8ME      -0.202300
      2 CAE          1.3870     0.0000     0.0000 ca         1 8ME      -0.062000
      3 CAD          2.0460     0.0000     1.2190 ca         1 8ME      -0.220300
      4 CAH          1.3050     0.0010     2.3860 ca         1 8ME       0.408200
      5 NAN         -0.0130     0.0010     2.3470 nb         1 8ME      -0.585000
      6 CAT         -0.6740     0.0060     1.2060 ca         1 8ME       0.358600
      7 CAX         -2.1810     0.0070     1.2180 c3         1 8ME      -0.023600
      8 CAA         -2.6910     1.4450     1.1020 c3         1 8ME      -0.010100
      9 NAP         -2.6590    -0.5820     2.4710 ns         1 8ME      -0.186900
     10 CAR         -3.8810    -1.1490     2.5260 c          1 8ME       0.569100
     11 OAB         -4.5840    -1.1710     1.5380 o          1 8ME      -0.668100
     12 CAL         -4.3730    -1.7540     3.8160 c3         1 8ME      -0.086400
     13 CAM         -5.7780    -2.3250     3.6070 c3         1 8ME      -0.044700
     14 CAS         -6.2700    -2.9310     4.8960 cc         1 8ME       0.290900
     15 NAO         -5.4910    -2.8890     5.9330 nd         1 8ME      -0.554100
     16 CAV         -5.8670    -3.4130     7.1270 ca         1 8ME       0.156400
     17 CAJ         -5.0280    -3.3690     8.2430 ca         1 8ME      -0.101000
     18 CAF         -5.4500    -3.9150     9.4340 ca         1 8ME      -0.063000
     19 CAG         -6.7010    -4.5090     9.5420 ca         1 8ME      -0.131000
     20 CAK         -7.5450    -4.5650     8.4550 ca         1 8ME      -0.014000
     21 CAW         -7.1380    -4.0190     7.2400 ca         1 8ME      -0.217600
     22 CAU         -7.9950    -4.0500     6.0450 c          1 8ME       0.618100
     23 OAC         -9.1010    -4.5570     6.0750 o          1 8ME      -0.662500
     24 NAQ         -7.5090    -3.4870     4.9140 ns         1 8ME      -0.005400
     25 H1          -0.5480     0.0020    -0.9340 ha         1 8ME       0.120000
     26 H2           1.9420    -0.0030    -0.9310 ha         1 8ME       0.111000
     27 H3           3.1290    -0.0000     1.2570 ha         1 8ME       0.115000
     28 H4           1.8120    -0.0010     3.3430 h4         1 8ME      -0.018900
     29 H5          -2.5480    -0.5750     0.3810 h1         1 8ME       0.060700
     30 H6          -3.1880     1.7260     2.0230 hc         1 8ME       0.013700
     31 H7          -1.8560     2.1110     0.9240 hc         1 8ME       0.013700
     32 H8          -3.3910     1.5140     0.2790 hc         1 8ME       0.013700
     33 H9          -2.0940    -0.5310     3.2960 hn         1 8ME       0.198500
     34 H10         -4.4030    -0.9910     4.5840 hc         1 8ME       0.044700
     35 H11         -3.7020    -2.5480     4.1210 hc         1 8ME       0.044700
     36 H12         -6.4490    -1.5310     3.3020 hc         1 8ME       0.042200
     37 H13         -5.7480    -3.0870     2.8380 hc         1 8ME       0.042200
     38 H14         -4.0500    -2.9080     8.1710 ha         1 8ME       0.118000
     39 H15         -4.7980    -3.8790    10.2990 ha         1 8ME       0.102000
     40 H16         -7.0140    -4.9330    10.4890 ha         1 8ME       0.108000
     41 H17         -8.5200    -5.0300     8.5440 ha         1 8ME       0.124000
     42 H18         -8.0680    -3.4820     4.0840 hn         1 8ME       0.184500
@<TRIPOS>BOND
     1     1     2 ar  
     2     1     6 ar  
     3     1    25 1   
     4     2     3 ar  
     5     2    26 1   
     6     3     4 ar  
     7     3    27 1   
     8     4     5 ar  
     9     4    28 1   
    10     5     6 ar  
    11     6     7 1   
    12     7     8 1   
    13     7     9 1   
    14     7    29 1   
    15     8    30 1   
    16     8    31 1   
    17     8    32 1   
    18     9    10 1   
    19     9    33 1   
    20    10    11 2   
    21    10    12 1   
    22    12    13 1   
    23    12    34 1   
    24    12    35 1   
    25    13    14 1   
    26    13    36 1   
    27    13    37 1   
    28    14    15 2   
    29    14    24 1   
    30    15    16 1   
    31    16    17 ar  
    32    16    21 ar  
    33    17    18 ar  
    34    17    38 1   
    35    18    19 ar  
    36    18    39 1   
    37    19    20 ar  
    38    19    40 1   
    39    20    21 ar  
    40    20    41 1   
    41    21    22 1   
    42    22    23 2   
    43    22    24 1   
    44    24    42 1   
@<TRIPOS>SUBSTRUCTURE
     1 8ME         1 TEMP              0 ****  ****    0 ROOT
