@<TRIPOS>MOLECULE
molecule
   42    44     1     0     0
SMALL
bcc


@<TRIPOS>ATOM
      1 CAI          0.0000     0.0000     0.0000 ca         1 8ME      -0.241300
      2 CAE          1.3870     0.0000     0.0000 ca         1 8ME      -0.087000
      3 CAD          2.0460     0.0000     1.2190 ca         1 8ME      -0.255300
      4 CAH          1.3050     0.0010     2.3860 ca         1 8ME       0.426200
      5 NAN         -0.0130     0.0010     2.3470 nb         1 8ME      -0.704000
      6 CAT         -0.6740     0.0060     1.2060 ca         1 8ME       0.414600
      7 CAX         -2.1810     0.0070     1.2180 c3         1 8ME       0.073400
      8 CAA         -2.6910     1.4450     1.1020 c3         1 8ME      -0.104100
      9 NAP         -2.6590    -0.5820     2.4710 ns         1 8ME      -0.572900
     10 CAR         -3.8810    -1.1490     2.5260 c          1 8ME       0.653100
     11 OAB         -4.5840    -1.1710     1.5380 o          1 8ME      -0.629100
     12 CAL         -4.3730    -1.7540     3.8160 c3         1 8ME      -0.139400
     13 CAM         -5.7780    -2.3250     3.6070 c3         1 8ME      -0.103700
     14 CAS         -6.2700    -2.9310     4.8960 cc         1 8ME       0.497900
     15 NAO         -5.4910    -2.8890     5.9330 nd         1 8ME      -0.661100
     16 CAV         -5.8670    -3.4130     7.1270 ca         1 8ME       0.198400
     17 CAJ         -5.0280    -3.3690     8.2430 ca         1 8ME      -0.124000
     18 CAF         -5.4500    -3.9150     9.4340 ca         1 8ME      -0.092000
     19 CAG         -6.7010    -4.5090     9.5420 ca         1 8ME      -0.156000
     20 CAK         -7.5450    -4.5650     8.4550 ca         1 8ME      -0.051000
     21 CAW         -7.1380    -4.0190     7.2400 ca         1 8ME      -0.208600
     22 CAU         -7.9950    -4.0500     6.0450 c          1 8ME       0.708100
     23 OAC         -9.1010    -4.5570     6.0750 o          1 8ME      -0.621500
     24 NAQ         -7.5090    -3.4870     4.9140 ns         1 8ME      -0.470400
     25 H1          -0.5480     0.0020    -0.9340 ha         1 8ME       0.144000
     26 H2           1.9420    -0.0030    -0.9310 ha         1 8ME       0.141000
     27 H3           3.1290    -0.0000     1.2570 ha         1 8ME       0.140000
     28 H4           1.8120    -0.0010     3.3430 h4         1 8ME       0.024100
     29 H5          -2.5480    -0.5750     0.3810 h1         1 8ME       0.087700
     30 H6          -3.1880     1.7260     2.0230 hc         1 8ME       0.047367
     31 H7          -1.8560     2.1110     0.9240 hc         1 8ME       0.047367
     32 H8          -3.3910     1.5140     0.2790 hc         1 8ME       0.047367
     33 H9          -2.0940    -0.5310     3.2960 hn         1 8ME       0.338500
     34 H10         -4.4030    -0.9910     4.5840 hc         1 8ME       0.080200
     35 H11         -3.7020    -2.5480     4.1210 hc         1 8ME       0.080200
     36 H12         -6.4490    -1.5310     3.3020 hc         1 8ME       0.079700
     37 H13         -5.7480    -3.0870     2.8380 hc         1 8ME       0.079700
     38 H14         -4.0500    -2.9080     8.1710 ha         1 8ME       0.148000
     39 H15         -4.7980    -3.8790    10.2990 ha         1 8ME       0.134000
     40 H16         -7.0140    -4.9330    10.4890 ha         1 8ME       0.136000
     41 H17         -8.5200    -5.0300     8.5440 ha         1 8ME       0.154000
     42 H18         -8.0680    -3.4820     4.0840 hn         1 8ME       0.340500
@<TRIPOS>BOND
     1    19    20 ar  
     2    19    18 ar  
     3    20    21 ar  
     4    18    17 ar  
     5    23    22 2   
     6    21    22 1   
     7    21    16 ar  
     8    17    16 ar  
     9    22    24 1   
    10    16    15 1   
    11     4     5 ar  
    12     4     3 ar  
    13    24    14 1   
    14    15    14 2   
    15    12    13 1   
    16    12    10 1   
    17     5     6 ar  
    18     3     2 ar  
    19    14    13 1   
    20    10     9 1   
    21    10    11 2   
    22     9     7 1   
    23     6     1 ar  
    24     6     7 1   
    25     2     1 ar  
    26     7     8 1   
    27     1    25 1   
    28     2    26 1   
    29     3    27 1   
    30     4    28 1   
    31     7    29 1   
    32     8    30 1   
    33     8    31 1   
    34     8    32 1   
    35     9    33 1   
    36    12    34 1   
    37    12    35 1   
    38    13    36 1   
    39    13    37 1   
    40    17    38 1   
    41    18    39 1   
    42    19    40 1   
    43    20    41 1   
    44    24    42 1   
@<TRIPOS>SUBSTRUCTURE
     1 8ME         1 TEMP              0 ****  ****    0 ROOT
