@<TRIPOS>MOLECULE
8MF
   31    34     1     0     0
SMALL
bcc


@<TRIPOS>ATOM
      1 C10          0.0000     0.0000     0.0000 c3         1 8MF       0.055600
      2 C13         -1.5290     3.4410     0.2850 ca         1 8MF      -0.075000
      3 C15         -0.3380     3.3050    -1.7990 ca         1 8MF       0.060100
      4 C01          4.7310     0.0000     1.2440 ca         1 8MF       0.525300
      5 N02          5.1790     0.0000     0.0000 nb         1 8MF      -0.657000
      6 C03          4.3430     0.0000    -1.0320 ca         1 8MF       0.753900
      7 N04          3.0290     0.0000    -0.8810 nb         1 8MF      -0.648000
      8 C05          2.4900    -0.0000     0.3350 ca         1 8MF       0.329800
      9 C06          3.3480    -0.0070     1.4560 ca         1 8MF      -0.517500
     10 N07          1.2160    -0.0010     0.8170 na         1 8MF       0.377200
     11 N08          1.2520    -0.0010     2.2150 nc         1 8MF      -0.609100
     12 C09          2.4860    -0.0060     2.6320 cd         1 8MF       0.470800
     13 C11         -0.3910     1.4210    -0.3190 ca         1 8MF      -0.117300
     14 C12         -1.1680     2.1380     0.5720 ca         1 8MF       0.044100
     15 C14         -1.1160     4.0300    -0.9000 ca         1 8MF       0.071100
     16 C16          0.0210     2.0000    -1.5040 ca         1 8MF      -0.062000
     17 O17         -1.3320     5.2760    -1.4140 os         1 8MF      -0.310900
     18 C18         -1.0220     5.1710    -2.8160 c3         1 8MF       0.431200
     19 O19         -0.0650     4.0970    -2.8770 os         1 8MF      -0.310900
     20 N21          4.8660     0.0030    -2.3140 nv         1 8MF      -0.628500
     21 Br1         -1.7390     1.3340     2.1860 br         1 8MF      -0.091100
     22 H1          -0.8020    -0.4810     0.5460 h1         1 8MF       0.049700
     23 H2           0.1840    -0.5390    -0.9210 h1         1 8MF       0.049700
     24 H3          -2.1380     4.0010     0.9840 ha         1 8MF       0.128000
     25 H4           2.8130    -0.0070     3.6640 h4         1 8MF       0.021800
     26 H5           0.5870     1.4190    -2.2220 ha         1 8MF       0.130000
     27 H6          -1.9130     4.9000    -3.3700 h2         1 8MF       0.016700
     28 H7          -0.5650     6.0900    -3.1620 h2         1 8MF       0.016700
     29 H8           5.2140     0.8530    -2.7110 hn         1 8MF       0.281800
     30 H9           4.9100    -0.8490    -2.8380 hn         1 8MF       0.281800
     31 Cl1          5.8340    -0.0010     2.5840 cl         1 8MF      -0.072000
@<TRIPOS>BOND
     1     1    10 1   
     2     1    13 1   
     3     1    22 1   
     4     1    23 1   
     5     2    14 ar  
     6     2    15 ar  
     7     2    24 1   
     8     3    15 ar  
     9     3    16 ar  
    10     3    19 1   
    11     4     5 ar  
    12     4     9 ar  
    13     4    31 1   
    14     5     6 ar  
    15     6     7 ar  
    16     6    20 1   
    17     7     8 ar  
    18     8     9 ar  
    19     8    10 1   
    20     9    12 1   
    21    10    11 1   
    22    11    12 2   
    23    12    25 1   
    24    13    14 ar  
    25    13    16 ar  
    26    14    21 1   
    27    15    17 1   
    28    16    26 1   
    29    17    18 1   
    30    18    19 1   
    31    18    27 1   
    32    18    28 1   
    33    20    29 1   
    34    20    30 1   
@<TRIPOS>SUBSTRUCTURE
     1 8MF         1 TEMP              0 ****  ****    0 ROOT
