@<TRIPOS>MOLECULE
molecule
   22    22     1     0     0
SMALL
bcc


@<TRIPOS>ATOM
      1 C4           0.0000     0.0000     0.0000 ca         1 8MK      -0.097800
      2 C5           1.4000     0.0000     0.0000 ca         1 8MK      -0.090000
      3 C6           2.0860     0.0000     1.1940 ca         1 8MK      -0.158000
      4 C7           1.3900     0.0010     2.3980 ca         1 8MK       0.121100
      5 C8          -0.0000     0.0000     2.4030 ca         1 8MK      -0.158000
      6 C9          -0.6960     0.0050     1.2160 ca         1 8MK      -0.090000
      7 O           -1.9820    -0.0010    -3.6600 o          1 8MK      -0.545100
      8 C1          -0.7680    -0.0070    -3.6620 c          1 8MK       0.567300
      9 C           -0.0170    -0.0120    -4.9690 c3         1 8MK      -0.191100
     10 C2          -0.0610    -0.0060    -2.4450 ce         1 8MK      -0.287200
     11 C3          -0.7370    -0.0000    -1.2690 cf         1 8MK      -0.006200
     12 O1           2.0710     0.0010     3.5720 oh         1 8MK      -0.521100
     13 H1           1.9430    -0.0020    -0.9380 ha         1 8MK       0.139500
     14 H2           3.1690     0.0000     1.1950 ha         1 8MK       0.143500
     15 H3          -0.5370     0.0030     3.3440 ha         1 8MK       0.143500
     16 H4          -1.7790     0.0050     1.2220 ha         1 8MK       0.139500
     17 H5           0.6080     0.8700    -5.0300 hc         1 8MK       0.059033
     18 H6          -0.7230    -0.0110    -5.7910 hc         1 8MK       0.059033
     19 H7           0.6030    -0.8990    -5.0260 hc         1 8MK       0.059033
     20 H8           1.0220    -0.0110    -2.4470 ha         1 8MK       0.134000
     21 H9          -1.8200     0.0040    -1.2670 ha         1 8MK       0.157000
     22 H10          2.2300     0.8900     3.8440 ho         1 8MK       0.423000
@<TRIPOS>BOND
     1     7     8 2
     2     3     2 ar
     3     3     4 ar
     4     2     1 ar
     5    10     8 1
     6    10    11 2
     7     8     9 1
     8    12     4 1
     9     4     5 ar
    10     1    11 1
    11     1     6 ar
    12     5     6 ar
    13     2    13 1
    14     3    14 1
    15     5    15 1
    16     6    16 1
    17     9    17 1
    18     9    18 1
    19     9    19 1
    20    10    20 1
    21    11    21 1
    22    12    22 1
@<TRIPOS>SUBSTRUCTURE
     1 8MK         1 TEMP              0 ****  ****    0 ROOT
