@<TRIPOS>MOLECULE
8MN
   23    23     1     0     0
SMALL
bcc


@<TRIPOS>ATOM
      1 C4           0.0000     0.0000     0.0000 ca         1 8MN      -0.083000
      2 C5           1.3900     0.0000     0.0000 ca         1 8MN       0.030900
      3 C6           4.0070    -0.0020    -0.9910 c3         1 8MN      -0.011300
      4 N1           7.0570    -0.0040    -3.1450 nz         1 8MN       0.285400
      5 C7           4.9050    -0.0030    -2.2010 c          1 8MN       0.629100
      6 Cl          -0.8690    -0.0030     3.8970 cl         1 8MN       0.015600
      7 C2           0.0020    -0.0040     2.3950 ca         1 8MN      -0.031600
      8 C1           1.3860     0.0010     2.3990 ca         1 8MN      -0.074500
      9 C3          -0.6890     0.0010     1.1970 ca         1 8MN      -0.074500
     10 C            2.0810     0.0000     1.2060 ca         1 8MN      -0.083000
     11 S            2.2730    -0.0020    -1.5240 ss         1 8MN      -0.239000
     12 O            4.4220    -0.0040    -3.3140 o          1 8MN      -0.532100
     13 N            6.2440    -0.0030    -2.0470 ns         1 8MN      -0.382300
     14 H1          -0.5420    -0.0470    -0.9370 ha         1 8MN       0.110000
     15 H2           4.2020    -0.8850    -0.3960 h1         1 8MN       0.071200
     16 H3           4.2020     0.8840    -0.3980 h1         1 8MN       0.071200
     17 H4           6.8800    -0.8240    -3.6910 hn         1 8MN       0.223133
     18 H5           8.0140     0.0000    -2.8510 hn         1 8MN       0.223133
     19 H6           1.9250     0.0060     3.3390 ha         1 8MN       0.124500
     20 H7          -1.7720     0.0050     1.1970 ha         1 8MN       0.124500
     21 H8           3.1640     0.0240     1.2090 ha         1 8MN       0.110000
     22 H9           6.6420    -0.0380    -1.1290 hn         1 8MN       0.269500
     23 H13          6.8740     0.8100    -3.6970 hn         1 8MN       0.223133
@<TRIPOS>BOND
     1     1     2 ar  
     2     1     9 ar  
     3     1    14 1   
     4     2    10 ar  
     5     2    11 1   
     6     3     5 1   
     7     3    11 1   
     8     3    15 1   
     9     3    16 1   
    10     4    13 1   
    11     4    17 1   
    12     4    18 1   
    13     4    23 1   
    14     5    12 2   
    15     5    13 1   
    16     6     7 1   
    17     7     8 ar  
    18     7     9 ar  
    19     8    10 ar  
    20     8    19 1   
    21     9    20 1   
    22    10    21 1   
    23    13    22 1   
@<TRIPOS>SUBSTRUCTURE
     1 8MN         1 TEMP              0 ****  ****    0 ROOT
