@<TRIPOS>MOLECULE
8MO
   24    26     1     0     0
SMALL
bcc


@<TRIPOS>ATOM
      1 C1         -0.0290   -0.0420   -0.1200 ca        1 8MO     -0.154800
      2 C2         -4.3420    0.0770   -1.6800 cc        1 8MO     -0.006900
      3 C3         -3.1400    0.1350   -2.3370 cd        1 8MO     -0.175200
      4 C4         -2.7210   -1.2480    3.1660 c3        1 8MO      0.109700
      5 C5          1.3070   -0.2570    2.3490 c         1 8MO      0.719800
      6 C6          2.0560   -0.1390    1.1070 cc        1 8MO     -0.252200
      7 C7          1.4150   -0.0390   -0.0740 cd        1 8MO     -0.009200
      8 C8         -0.7190    0.0580   -1.3380 ca        1 8MO     -0.041000
      9 C9         -2.1020    0.0530   -1.3210 ca        1 8MO     -0.116800
     10 C10        -2.8000   -0.0560   -0.0710 ca        1 8MO      0.087100
     11 C11        -2.1480   -0.1420    1.1570 ca        1 8MO      0.093100
     12 C12        -0.7340   -0.1390    1.1060 ca        1 8MO      0.135100
     13 O1         -0.0890   -0.2490    2.3190 os        1 8MO     -0.323200
     14 O2         -4.1760   -0.0420   -0.2860 os        1 8MO     -0.181200
     15 O3         -2.8730   -0.0990    2.3260 os        1 8MO     -0.307900
     16 O4          1.7170   -0.3750    3.5020 o         1 8MO     -0.561500
     17 H2         -5.3860    0.1000   -1.9840 h4        1 8MO      0.196000
     18 H3         -2.9660    0.2280   -3.4060 ha        1 8MO      0.169000
     19 H41        -3.4080   -1.0290    4.0210 h1        1 8MO      0.051033
     20 H42        -1.6650   -1.3390    3.5160 h1        1 8MO      0.051033
     21 H43        -3.0410   -2.1700    2.6240 h1        1 8MO      0.051033
     22 H6          3.1520   -0.1400    1.2040 ha        1 8MO      0.171000
     23 H7          1.9610    0.0480   -1.0270 ha        1 8MO      0.149000
     24 H8         -0.1620    0.1400   -2.2830 ha        1 8MO      0.148000
@<TRIPOS>BOND
     1    1    7 1
     2    1    8 ar
     3    1   12 ar
     4    2    3 2
     5    2   14 1
     6    2   17 1
     7    3    9 1
     8    3   18 1
     9    4   15 1
    10    4   19 1
    11    4   20 1
    12    4   21 1
    13    5    6 1
    14    5   13 1
    15    5   16 2
    16    6    7 2
    17    6   22 1
    18    7   23 1
    19    8    9 ar
    20    8   24 1
    21    9   10 ar
    22   10   11 ar
    23   10   14 1
    24   11   12 ar
    25   11   15 1
    26   12   13 1
@<TRIPOS>SUBSTRUCTURE
     1 8MO         1 TEMP              0 ****  ****    0 ROOT
