@<TRIPOS>MOLECULE
8MP
   36    36     1     0     0
SMALL
bcc


@<TRIPOS>ATOM
      1 C9           0.0000     0.0000     0.0000 c3         1 8MP      -0.097400
      2 N1          -2.0720    -1.5030    -5.0120 n7         1 8MP      -0.564200
      3 C10          1.5300     0.0000     0.0000 c3         1 8MP      -0.014400
      4 C2          -2.3690    -1.4120    -3.5660 c3         1 8MP       0.126800
      5 N2          -1.8280    -0.0000    -1.6660 ns         1 8MP      -0.177900
      6 C11          2.0400     0.0000     1.4420 c3         1 8MP       0.002900
      7 C3          -2.3170     0.0000    -3.0470 c3         1 8MP       0.003700
      8 C4          -3.7410     0.5910    -3.0920 c3         1 8MP       0.160100
      9 O4          -3.8040     1.7190    -2.2170 oh         1 8MP      -0.581800
     10 C5          -4.1210     1.0130    -4.4360 c3         1 8MP       0.155100
     11 O5          -5.4290     1.5850    -4.3920 oh         1 8MP      -0.583800
     12 C6          -4.1220    -0.1610    -5.4380 c3         1 8MP       0.147100
     13 O6          -4.8880     0.1920    -6.5910 oh         1 8MP      -0.568800
     14 C7          -2.7000    -0.4480    -5.8380 c3         1 8MP       0.102800
     15 C8          -0.5030    -0.0010    -1.4210 c          1 8MP       0.570100
     16 O8           0.2850     0.0010    -2.3420 o          1 8MP      -0.638100
     17 H16         -0.3610    -0.8840     0.5110 hc         1 8MP       0.026200
     18 H13         -0.3610     0.8850     0.5100 hc         1 8MP       0.026200
     19 H17          1.8910    -0.8840    -0.5110 hc         1 8MP       0.028200
     20 H01          1.8910     0.8840    -0.5110 hc         1 8MP       0.028200
     21 H03         -1.6450    -2.0080    -3.0240 h1         1 8MP       0.014700
     22 H14         -3.3610    -1.8110    -3.3890 h1         1 8MP       0.014700
     23 H04         -2.4770    -0.0360    -0.9050 hn         1 8MP       0.171500
     24 H19          1.6790     0.8840     1.9530 hc         1 8MP      -0.000633
     25 H18          1.6790    -0.8850     1.9530 hc         1 8MP      -0.000633
     26 H20          3.1230     0.0000     1.4420 hc         1 8MP      -0.000633
     27 H05         -1.6590     0.5920    -3.6710 h1         1 8MP       0.083700
     28 H06         -4.4420    -0.1620    -2.7530 h1         1 8MP       0.011700
     29 H07         -4.5850     1.6660    -1.6920 ho         1 8MP       0.398000
     30 H08         -3.4170     1.7620    -4.7780 h1         1 8MP       0.028700
     31 H09         -5.3930     2.4750    -4.7020 ho         1 8MP       0.403000
     32 H10         -4.5490    -1.0380    -4.9660 h1         1 8MP       0.006700
     33 H11         -5.4750    -0.5140    -6.8070 ho         1 8MP       0.392000
     34 H12         -2.6880    -0.7640    -6.8740 h1         1 8MP       0.038700
     35 H15         -2.1210     0.4630    -5.7390 h1         1 8MP       0.038700
     36 H1          -2.3480    -2.4020    -5.3540 hn         1 8MP       0.250800
@<TRIPOS>BOND
     1     1     3 1   
     2     1    15 1   
     3     1    17 1   
     4     1    18 1   
     5     2     4 1   
     6     2    14 1   
     7     2    36 1   
     8     3     6 1   
     9     3    19 1   
    10     3    20 1   
    11     4     7 1   
    12     4    21 1   
    13     4    22 1   
    14     5     7 1   
    15     5    15 1   
    16     5    23 1   
    17     6    24 1   
    18     6    25 1   
    19     6    26 1   
    20     7     8 1   
    21     7    27 1   
    22     8     9 1   
    23     8    10 1   
    24     8    28 1   
    25     9    29 1   
    26    10    11 1   
    27    10    12 1   
    28    10    30 1   
    29    11    31 1   
    30    12    13 1   
    31    12    14 1   
    32    12    32 1   
    33    13    33 1   
    34    14    34 1   
    35    14    35 1   
    36    15    16 2   
@<TRIPOS>SUBSTRUCTURE
     1 8MP         1 TEMP              0 ****  ****    0 ROOT
