@<TRIPOS>MOLECULE
molecule
   36    36     1     0     0
SMALL
bcc


@<TRIPOS>ATOM
      1 C9           0.0000     0.0000     0.0000 c3         1 8MP      -0.157400
      2 N1          -2.0720    -1.5030    -5.0120 n7         1 8MP      -0.812200
      3 C10          1.5300     0.0000     0.0000 c3         1 8MP      -0.068400
      4 C2          -2.3690    -1.4120    -3.5660 c3         1 8MP       0.145800
      5 N2          -1.8280    -0.0000    -1.6660 ns         1 8MP      -0.574900
      6 C11          2.0400     0.0000     1.4420 c3         1 8MP      -0.096100
      7 C3          -2.3170     0.0000    -3.0470 c3         1 8MP       0.113700
      8 C4          -3.7410     0.5910    -3.0920 c3         1 8MP       0.123100
      9 O4          -3.8040     1.7190    -2.2170 oh         1 8MP      -0.596800
     10 C5          -4.1210     1.0130    -4.4360 c3         1 8MP       0.128100
     11 O5          -5.4290     1.5850    -4.3920 oh         1 8MP      -0.601800
     12 C6          -4.1220    -0.1610    -5.4380 c3         1 8MP       0.102100
     13 O6          -4.8880     0.1920    -6.5910 oh         1 8MP      -0.590800
     14 C7          -2.7000    -0.4480    -5.8380 c3         1 8MP       0.130800
     15 C8          -0.5030    -0.0010    -1.4210 c          1 8MP       0.657100
     16 O8           0.2850     0.0010    -2.3420 o          1 8MP      -0.598100
     17 H16         -0.3610    -0.8840     0.5110 hc         1 8MP       0.058200
     18 H13         -0.3610     0.8850     0.5100 hc         1 8MP       0.058200
     19 H17          1.8910    -0.8840    -0.5110 hc         1 8MP       0.058700
     20 H01          1.8910     0.8840    -0.5110 hc         1 8MP       0.058700
     21 H03         -1.6450    -2.0080    -3.0240 h1         1 8MP       0.039700
     22 H14         -3.3610    -1.8110    -3.3890 h1         1 8MP       0.039700
     23 H04         -2.4770    -0.0360    -0.9050 hn         1 8MP       0.313500
     24 H19          1.6790     0.8840     1.9530 hc         1 8MP       0.033033
     25 H18          1.6790    -0.8850     1.9530 hc         1 8MP       0.033033
     26 H20          3.1230     0.0000     1.4420 hc         1 8MP       0.033033
     27 H05         -1.6590     0.5920    -3.6710 h1         1 8MP       0.105700
     28 H06         -4.4420    -0.1620    -2.7530 h1         1 8MP       0.039700
     29 H07         -4.5850     1.6660    -1.6920 ho         1 8MP       0.409000
     30 H08         -3.4170     1.7620    -4.7780 h1         1 8MP       0.059700
     31 H09         -5.3930     2.4750    -4.7020 ho         1 8MP       0.417000
     32 H10         -4.5490    -1.0380    -4.9660 h1         1 8MP       0.036700
     33 H11         -5.4750    -0.5140    -6.8070 ho         1 8MP       0.407000
     34 H12         -2.6880    -0.7640    -6.8740 h1         1 8MP       0.068700
     35 H15         -2.1210     0.4630    -5.7390 h1         1 8MP       0.068700
     36 H1          -2.3480    -2.4020    -5.3540 hn         1 8MP       0.356800
@<TRIPOS>BOND
     1     6     3 1   
     2     3     1 1   
     3     4     2 1   
     4     4     7 1   
     5     2    14 1   
     6     1    15 1   
     7    16    15 2   
     8    15     5 1   
     9     5     7 1   
    10    13    12 1   
    11     7     8 1   
    12    14    12 1   
    13    12    10 1   
    14     8    10 1   
    15     8     9 1   
    16    10    11 1   
    17     1    17 1   
    18     1    18 1   
    19     2    36 1   
    20     3    19 1   
    21     3    20 1   
    22     4    21 1   
    23     4    22 1   
    24     5    23 1   
    25     6    24 1   
    26     6    25 1   
    27     6    26 1   
    28     7    27 1   
    29     8    28 1   
    30     9    29 1   
    31    10    30 1   
    32    11    31 1   
    33    12    32 1   
    34    13    33 1   
    35    14    34 1   
    36    14    35 1   
@<TRIPOS>SUBSTRUCTURE
     1 8MP         1 TEMP              0 ****  ****    0 ROOT
