@<TRIPOS>MOLECULE
8MQ
   42    44     1     0     0
SMALL
bcc


@<TRIPOS>ATOM
      1 C4           0.0000     0.0000     0.0000 cc         1 8MQ      -0.226100
      2 C5           0.5990    -0.0050     2.1610 ca         1 8MQ      -0.258200
      3 C6           1.7890     0.0000     1.4180 ca         1 8MQ      -0.035800
      4 C7           3.0200     0.0040     2.0680 ca         1 8MQ      -0.044000
      5 C8           3.0640     0.0030     3.4460 ca         1 8MQ      -0.118000
      6 C9           1.8890    -0.0030     4.1830 ca         1 8MQ      -0.089000
      7 C10          0.6630    -0.0050     3.5510 ca         1 8MQ      -0.097000
      8 O            3.4350    -0.0020    -0.9870 o          1 8MQ      -0.556100
      9 C2           2.2300    -0.0020    -1.1330 c          1 8MQ       0.656300
     10 C1           1.6400    -0.0020    -2.5190 c3         1 8MQ       0.032500
     11 C3           1.3790     0.0000     0.0000 cd         1 8MQ      -0.263400
     12 N           -0.4540     0.0010     1.2680 na         1 8MQ       0.400600
     13 H1          -0.6240    -0.0010    -0.8860 h4         1 8MQ       0.144000
     14 H2           3.9380     0.0080     1.4940 ha         1 8MQ       0.128000
     15 H3           4.0200     0.0050     3.9550 ha         1 8MQ       0.105000
     16 H4           1.9340    -0.0040     5.2650 ha         1 8MQ       0.102000
     17 H5          -0.2490    -0.0100     4.1360 ha         1 8MQ       0.098000
     18 H6           0.7350    -0.5970    -2.5260 h1         1 8MQ       0.011700
     19 H9          -1.4200     0.0010     1.5270 hn         1 8MQ       0.111700
     20 C11          1.3090     1.4340    -2.9340 c3         1 8MQ       0.003900
     21 N1           2.6080    -0.5730    -3.4640 n3         1 8MQ      -0.499600
     22 C14          2.9630    -1.8730    -3.0940 c3         1 8MQ       0.131300
     23 C12          4.1410    -2.4080    -3.9350 c3         1 8MQ      -0.029900
     24 C15          3.6290    -2.8200    -5.2920 c3         1 8MQ      -0.026900
     25 C16          3.7420    -1.6910    -6.3360 c3         1 8MQ      -0.026900
     26 C17          3.3450    -0.3250    -5.7510 c3         1 8MQ      -0.029900
     27 C18          2.1360    -0.4340    -4.8560 c3         1 8MQ       0.131300
     28 H7           0.4720     1.4270    -3.6220 hc         1 8MQ       0.013700
     29 H8           2.1700     1.8780    -3.4180 hc         1 8MQ       0.013700
     30 H10          1.0500     2.0130    -2.0560 hc         1 8MQ       0.013700
     31 H11          3.2480    -1.8760    -2.0490 h1         1 8MQ       0.015950
     32 H12          2.1080    -2.5240    -3.2330 h1         1 8MQ       0.015950
     33 H13          4.8850    -1.6290    -4.0520 hc         1 8MQ       0.025200
     34 H14          4.5800    -3.2650    -3.4390 hc         1 8MQ       0.025200
     35 H15          4.2030    -3.6720    -5.6360 hc         1 8MQ       0.009450
     36 H16          2.5880    -3.1070    -5.1990 hc         1 8MQ       0.009450
     37 H17          3.0890    -1.9190    -7.1700 hc         1 8MQ       0.009450
     38 H18          4.7650    -1.6390    -6.6860 hc         1 8MQ       0.009450
     39 H19          4.1750     0.0670    -5.1760 hc         1 8MQ       0.025200
     40 H20          3.1200     0.3540    -6.5650 hc         1 8MQ       0.025200
     41 H21          1.5320     0.4600    -4.9480 h1         1 8MQ       0.015950
     42 H22          1.5550    -1.3050    -5.1330 h1         1 8MQ       0.015950
@<TRIPOS>BOND
     1     1    11 2   
     2     1    12 1   
     3     1    13 1   
     4     2     3 ar  
     5     2     7 ar  
     6     2    12 1   
     7     3     4 ar  
     8     3    11 1   
     9     4     5 ar  
    10     4    14 1   
    11     5     6 ar  
    12     5    15 1   
    13     6     7 ar  
    14     6    16 1   
    15     7    17 1   
    16     8     9 2   
    17     9    10 1   
    18     9    11 1   
    19    10    18 1   
    20    10    20 1   
    21    10    21 1   
    22    12    19 1   
    23    20    28 1   
    24    20    29 1   
    25    20    30 1   
    26    21    22 1   
    27    21    27 1   
    28    22    23 1   
    29    22    31 1   
    30    22    32 1   
    31    23    24 1   
    32    23    33 1   
    33    23    34 1   
    34    24    25 1   
    35    24    35 1   
    36    24    36 1   
    37    25    26 1   
    38    25    37 1   
    39    25    38 1   
    40    26    27 1   
    41    26    39 1   
    42    26    40 1   
    43    27    41 1   
    44    27    42 1   
@<TRIPOS>SUBSTRUCTURE
     1 8MQ         1 TEMP              0 ****  ****    0 ROOT
