@<TRIPOS>MOLECULE
molecule
   42    44     1     0     0
SMALL
bcc


@<TRIPOS>ATOM
      1 C4           0.0000     0.0000     0.0000 cc         1 8MQ      -0.047100
      2 C5           0.5990    -0.0050     2.1610 ca         1 8MQ      -0.060200
      3 C6           1.7890     0.0000     1.4180 ca         1 8MQ      -0.052800
      4 C7           3.0200     0.0040     2.0680 ca         1 8MQ      -0.072000
      5 C8           3.0640     0.0030     3.4460 ca         1 8MQ      -0.149000
      6 C9           1.8890    -0.0030     4.1830 ca         1 8MQ      -0.110000
      7 C10          0.6630    -0.0050     3.5510 ca         1 8MQ      -0.141000
      8 O            3.4350    -0.0020    -0.9870 o          1 8MQ      -0.519100
      9 C2           2.2300    -0.0020    -1.1330 c          1 8MQ       0.605300
     10 C1           1.6400    -0.0020    -2.5190 c3         1 8MQ       0.083500
     11 C3           1.3790     0.0000     0.0000 cd         1 8MQ      -0.259400
     12 N           -0.4540     0.0010     1.2680 na         1 8MQ      -0.158400
     13 H1          -0.6240    -0.0010    -0.8860 h4         1 8MQ       0.171000
     14 H2           3.9380     0.0080     1.4940 ha         1 8MQ       0.157000
     15 H3           4.0200     0.0050     3.9550 ha         1 8MQ       0.133000
     16 H4           1.9340    -0.0040     5.2650 ha         1 8MQ       0.131000
     17 H5          -0.2490    -0.0100     4.1360 ha         1 8MQ       0.125000
     18 H6           0.7350    -0.5970    -2.5260 h1         1 8MQ       0.024700
     19 H9          -1.4200     0.0010     1.5270 hn         1 8MQ       0.298700
     20 C11          1.3090     1.4340    -2.9340 c3         1 8MQ      -0.086100
     21 N1           2.6080    -0.5730    -3.4640 n3         1 8MQ      -0.724600
     22 C14          2.9630    -1.8730    -3.0940 c3         1 8MQ       0.171300
     23 C12          4.1410    -2.4080    -3.9350 c3         1 8MQ      -0.078900
     24 C15          3.6290    -2.8200    -5.2920 c3         1 8MQ      -0.081400
     25 C16          3.7420    -1.6910    -6.3360 c3         1 8MQ      -0.081400
     26 C17          3.3450    -0.3250    -5.7510 c3         1 8MQ      -0.078900
     27 C18          2.1360    -0.4340    -4.8560 c3         1 8MQ       0.171300
     28 H7           0.4720     1.4270    -3.6220 hc         1 8MQ       0.046033
     29 H8           2.1700     1.8780    -3.4180 hc         1 8MQ       0.046033
     30 H10          1.0500     2.0130    -2.0560 hc         1 8MQ       0.046033
     31 H11          3.2480    -1.8760    -2.0490 h1         1 8MQ       0.033450
     32 H12          2.1080    -2.5240    -3.2330 h1         1 8MQ       0.033450
     33 H13          4.8850    -1.6290    -4.0520 hc         1 8MQ       0.052950
     34 H14          4.5800    -3.2650    -3.4390 hc         1 8MQ       0.052950
     35 H15          4.2030    -3.6720    -5.6360 hc         1 8MQ       0.035950
     36 H16          2.5880    -3.1070    -5.1990 hc         1 8MQ       0.035950
     37 H17          3.0890    -1.9190    -7.1700 hc         1 8MQ       0.035950
     38 H18          4.7650    -1.6390    -6.6860 hc         1 8MQ       0.035950
     39 H19          4.1750     0.0670    -5.1760 hc         1 8MQ       0.052950
     40 H20          3.1200     0.3540    -6.5650 hc         1 8MQ       0.052950
     41 H21          1.5320     0.4600    -4.9480 h1         1 8MQ       0.033450
     42 H22          1.5550    -1.3050    -5.1330 h1         1 8MQ       0.033450
@<TRIPOS>BOND
     1     8     9 2   
     2    10     9 1   
     3     9    11 1   
     4    11     1 2   
     5    11     3 1   
     6     1    12 1   
     7     4     3 ar  
     8     4     5 ar  
     9     3     2 ar  
    10    12     2 1   
    11     5     6 ar  
    12     2     7 ar  
    13     6     7 ar  
    14     1    13 1   
    15     4    14 1   
    16     5    15 1   
    17     6    16 1   
    18     7    17 1   
    19    10    18 1   
    20    12    19 1   
    21    10    20 1   
    22    10    21 1   
    23    21    22 1   
    24    22    23 1   
    25    23    24 1   
    26    24    25 1   
    27    25    26 1   
    28    26    27 1   
    29    27    21 1   
    30    20    28 1   
    31    20    29 1   
    32    20    30 1   
    33    22    31 1   
    34    22    32 1   
    35    23    33 1   
    36    23    34 1   
    37    24    35 1   
    38    24    36 1   
    39    25    37 1   
    40    25    38 1   
    41    26    39 1   
    42    26    40 1   
    43    27    41 1   
    44    27    42 1   
@<TRIPOS>SUBSTRUCTURE
     1 8MQ         1 TEMP              0 ****  ****    0 ROOT
