@<TRIPOS>MOLECULE
8MR
   30    30     1     0     0
SMALL
bcc


@<TRIPOS>ATOM
      1 CAI        -0.1780    0.0920    0.1510 c3        1 8MR      0.114700
      2 OAH         1.2440    0.1090    0.0960 os        1 8MR     -0.327900
      3 CAG         1.9010    0.0660    1.3080 ca        1 8MR      0.171100
      4 CAQ         1.2660   -0.1290    2.5430 ca        1 8MR     -0.209000
      5 CAP         2.0390   -0.1650    3.6990 ca        1 8MR      0.020500
      6 CAF         3.2980    0.2160    1.2340 ca        1 8MR     -0.209000
      7 CAE         4.0420    0.1760    2.4050 ca        1 8MR      0.020500
      8 CAO         3.4300   -0.0140    3.6530 ca        1 8MR     -0.390500
      9 SAN         4.3380   -0.0870    5.0730 sy        1 8MR      1.351300
     10 OAS         3.5790   -0.7680    6.0450 o         1 8MR     -0.661300
     11 OAD         5.5960   -0.6480    4.7850 o         1 8MR     -0.661300
     12 CAM         4.4440    1.5980    5.4340 c3        1 8MR     -0.307900
     13 CAB         4.3850    2.0610    6.9130 c3        1 8MR      0.411900
     14 FA          5.2000    1.3300    7.7500 f         1 8MR     -0.262800
     15 FB          3.1410    1.8690    7.4770 f         1 8MR     -0.262800
     16 CAL         5.6970    2.2030    4.8160 c3        1 8MR     -0.185400
     17 CAK         5.5140    3.7050    4.5040 c         1 8MR      0.913600
     18 OAR         5.2210    4.4800    5.4610 o         1 8MR     -0.832300
     19 OAJ         5.6760    4.0730    3.3100 o         1 8MR     -0.832300
     20 HAI1       -0.5620    0.9420    0.7650 h1        1 8MR      0.042367
     21 HAI2       -0.5420   -0.8820    0.5600 h1        1 8MR      0.042367
     22 HAI3       -0.4820    0.2080   -0.9200 h1        1 8MR      0.042367
     23 HAQ         0.1770   -0.2460    2.6110 ha        1 8MR      0.143500
     24 HAP         1.5500   -0.3260    4.6770 ha        1 8MR      0.161000
     25 HAF         3.7780    0.3780    0.2590 ha        1 8MR      0.143500
     26 HAE         5.1400    0.2980    2.3560 ha        1 8MR      0.161000
     27 HAM         3.5690    2.1390    4.9620 h1        1 8MR      0.138700
     28 HAB         4.6710    3.1690    6.9350 h2        1 8MR      0.165700
     29 HAL1        6.5590    2.0870    5.5190 hc        1 8MR      0.049200
     30 HAL2        5.9470    1.6690    3.8630 hc        1 8MR      0.049200
@<TRIPOS>BOND
     1    1    2 1   
     2    1   20 1   
     3    1   21 1   
     4    1   22 1   
     5    2    3 1   
     6    3    4 ar  
     7    3    6 ar  
     8    4    5 ar  
     9    4   23 1   
    10    5    8 ar  
    11    5   24 1   
    12    6    7 ar  
    13    6   25 1   
    14    7    8 ar  
    15    7   26 1   
    16    8    9 1   
    17    9   10 2   
    18    9   11 2   
    19    9   12 1   
    20   12   13 1   
    21   12   16 1   
    22   12   27 1   
    23   13   14 1   
    24   13   15 1   
    25   13   28 1   
    26   16   17 1   
    27   16   29 1   
    28   16   30 1   
    29   17   18 1   
    30   17   19 1   
@<TRIPOS>SUBSTRUCTURE
     1 8MR         1 TEMP              0 ****  ****    0 ROOT
