@<TRIPOS>MOLECULE
molecule
   30    30     1     0     0
SMALL
bcc


@<TRIPOS>ATOM
      1 CAI          0.0000     0.0000     0.0000 c3         1 8MR       0.129700
      2 OAH          1.4260     0.0000     0.0000 os         1 8MR      -0.329900
      3 CAG          2.0450     0.0000     1.2120 ca         1 8MR       0.177100
      4 CAQ          1.2870    -0.0000     2.3820 ca         1 8MR      -0.213000
      5 CAP          1.9220    -0.0000     3.6250 ca         1 8MR       0.009500
      6 CAF          3.4390    -0.0010     1.2830 ca         1 8MR      -0.213000
      7 CAE          4.0730    -0.0010     2.5260 ca         1 8MR       0.009500
      8 CAO          3.3060    -0.0010     3.6800 ca         1 8MR      -0.303500
      9 SAN          4.1090    -0.0030     5.2520 sy         1 8MR       1.127300
     10 OAS          3.1850    -0.5740     6.2080 o          1 8MR      -0.613800
     11 OAD          5.4380    -0.5560     5.0820 o          1 8MR      -0.613800
     12 CAM          4.3000     1.7260     5.6250 c3         1 8MR      -0.229900
     13 CAB          4.9270     1.8760     7.0060 c3         1 8MR       0.434900
     14 FA           6.1540     1.3030     7.0350 f          1 8MR      -0.243300
     15 FB           4.1750     1.2370     7.9370 f          1 8MR      -0.243300
     16 CAL          5.1150     2.4050     4.5180 c3         1 8MR      -0.162400
     17 CAK          5.2390     3.9020     4.6970 c          1 8MR       0.892600
     18 OAR          4.4320     4.6160     5.2770 o          1 8MR      -0.838800
     19 OAJ          6.3550     4.3870     4.0920 o          1 8MR      -0.838800
     20 HAI1        -0.3610    -0.8850     0.5110 h1         1 8MR       0.039700
     21 HAI2        -0.3610     0.8840     0.5110 h1         1 8MR       0.039700
     22 HAI3        -0.3610     0.0000    -1.0210 h1         1 8MR       0.039700
     23 HAQ          0.2050     0.0000     2.3270 ha         1 8MR       0.139000
     24 HAP          1.3380    -0.0000     4.5370 ha         1 8MR       0.159500
     25 HAF          4.0280    -0.0010     0.3740 ha         1 8MR       0.139000
     26 HAE          5.1540    -0.0010     2.5880 ha         1 8MR       0.159500
     27 HAM          3.3160     2.1800     5.6480 h1         1 8MR       0.123700
     28 HAB          5.0070     2.9270     7.2590 h2         1 8MR       0.107700
     29 HAL1         6.1090     1.9740     4.5050 hc         1 8MR       0.058200
     30 HAL2         4.6380     2.2080     3.5660 hc         1 8MR       0.058200
@<TRIPOS>BOND
     1     1     2 1   
     2     1    20 1   
     3     1    21 1   
     4     1    22 1   
     5     2     3 1   
     6     3     6 ar  
     7     3     4 ar  
     8     4     5 ar  
     9     4    23 1   
    10     5     8 ar  
    11     5    24 1   
    12     6     7 ar  
    13     6    25 1   
    14     7     8 ar  
    15     7    26 1   
    16     8     9 1   
    17     9    12 1   
    18     9    10 2   
    19     9    11 2   
    20    12    16 1   
    21    12    13 1   
    22    12    27 1   
    23    13    15 1   
    24    13    14 1   
    25    13    28 1   
    26    16    17 1   
    27    16    29 1   
    28    16    30 1   
    29    17    18 1   
    30    17    19 1   
@<TRIPOS>SUBSTRUCTURE
     1 8MR         1 TEMP              0 ****  ****    0 ROOT
