@<TRIPOS>MOLECULE
molecule
   16    16     1     0     0
SMALL
bcc


@<TRIPOS>ATOM
      1 C2           0.0000     0.0000     0.0000 cc         1 8MT       0.010000
      2 C1           1.3670     0.0000     0.0000 cd         1 8MT      -0.185700
      3 N1           3.5580    -0.0010    -1.0640 ns         1 8MT      -0.524300
      4 C4           0.3450     0.0050     2.2640 cc         1 8MT       0.069000
      5 C3          -0.5440     0.0050     1.2630 cd         1 8MT      -0.059900
      6 Br1         -0.1070     0.0110     4.1010 br         1 8MT       0.052900
      7 Br          -2.4120     0.0100     1.5630 br         1 8MT       0.011900
      8 S            1.9420     0.0000     1.6620 ss         1 8MT      -0.021800
      9 C            2.2170    -0.0010    -1.1930 c          1 8MT       0.720700
     10 O            1.7110    -0.0020    -2.3010 o          1 8MT      -0.545100
     11 N            4.3510    -0.0030    -2.1770 nz         1 8MT      -0.530600
     12 H1          -0.5950    -0.0000    -0.9050 ha         1 8MT       0.197000
     13 H2           3.9730     0.0310    -0.1540 hn         1 8MT       0.389500
     14 H3           5.3130    -0.0070    -1.9020 hn         1 8MT       0.471800
     15 H4           4.1570    -0.8180    -2.7240 hn         1 8MT       0.471800
     16 HN3          4.1630     0.8160    -2.7210 hn         1 8MT       0.471800
@<TRIPOS>BOND
     1     6     4 1
     2     8     4 1
     3     8     2 1
     4    11     3 1
     5     3     9 1
     6     4     5 2
     7     9     2 1
     8     9    10 2
     9     2     1 2
    10     5     1 1
    11     5     7 1
    12     1    12 1
    13     3    13 1
    14    11    14 1
    15    11    15 1
    16    16    11 1
@<TRIPOS>SUBSTRUCTURE
     1 8MT         1 TEMP              0 ****  ****    0 ROOT
