@<TRIPOS>MOLECULE
8MT
   16    16     1     0     0
SMALL
bcc


@<TRIPOS>ATOM
      1 C2           0.0000     0.0000     0.0000 cc         1 8MT       0.064000
      2 C1           1.3670     0.0000     0.0000 cd         1 8MT      -0.169700
      3 N1           3.5580    -0.0010    -1.0640 ns         1 8MT      -0.379300
      4 C4           0.3450     0.0050     2.2640 cd         1 8MT       0.156000
      5 C3          -0.5440     0.0050     1.2630 cc         1 8MT      -0.051900
      6 Br1         -0.1070     0.0110     4.1010 br         1 8MT       0.063900
      7 Br          -2.4120     0.0100     1.5630 br         1 8MT       0.000900
      8 S            1.9420     0.0000     1.6620 ss         1 8MT      -0.174800
      9 C            2.2170    -0.0010    -1.1930 c          1 8MT       0.693700
     10 O            1.7110    -0.0020    -2.3010 o          1 8MT      -0.584100
     11 N            4.3510    -0.0030    -2.1770 nz         1 8MT       0.288400
     12 H1          -0.5950    -0.0000    -0.9050 ha         1 8MT       0.154000
     13 H2           3.9730     0.0310    -0.1540 hn         1 8MT       0.276500
     14 H3           5.3130    -0.0070    -1.9020 hn         1 8MT       0.221467
     15 H4           4.1570    -0.8180    -2.7240 hn         1 8MT       0.221467
     16 HN3          4.1630     0.8160    -2.7210 hn         1 8MT       0.221467
@<TRIPOS>BOND
     1     1     2 2   
     2     1     5 1   
     3     1    12 1   
     4     2     8 1   
     5     2     9 1   
     6     3     9 1   
     7     3    11 1   
     8     3    13 1   
     9     4     5 2   
    10     4     6 1   
    11     4     8 1   
    12     5     7 1   
    13     9    10 2   
    14    11    14 1   
    15    11    15 1   
    16    11    16 1   
@<TRIPOS>SUBSTRUCTURE
     1 8MT         1 TEMP              0 ****  ****    0 ROOT
