@<TRIPOS>MOLECULE
molecule
   28    30     1     0     0
SMALL
bcc


@<TRIPOS>ATOM
      1 C4           0.0000     0.0000     0.0000 ca         1 8MW       0.692300
      2 C5           1.9980     0.0000     1.1470 ca         1 8MW       0.463600
      3 C6           3.4550     0.0030     3.2030 cc         1 8MW      -0.028600
      4 N1           1.3130     0.0000     0.0000 nb         1 8MW      -0.719000
      5 C7           4.5200     0.0040     4.2140 c          1 8MW       0.904800
      6 C8          -0.7290    -0.0010    -1.3190 cx         1 8MW      -0.153000
      7 C9          -0.4690    -1.1720    -2.2690 cx         1 8MW      -0.131400
      8 C10          0.1030     0.2110    -2.5860 cx         1 8MW      -0.131400
      9 O1           4.2350     0.0040     5.3960 o          1 8MW      -0.815800
     10 O            5.8130     0.0040     3.8320 o          1 8MW      -0.815800
     11 C1           2.1450     0.0010     3.4790 cd         1 8MW      -0.093400
     12 C            1.6210     0.0030     4.8910 c3         1 8MW      -0.066900
     13 S            3.7260     0.0020     1.4690 ss         1 8MW      -0.104900
     14 C2           1.2960     0.0000     2.3640 ca         1 8MW      -0.302400
     15 N           -0.7030    -0.0060     1.1190 nb         1 8MW      -0.760000
     16 C3          -0.1170    -0.0060     2.2980 ca         1 8MW       0.490600
     17 H1          -1.7330     0.4050    -1.3630 hc         1 8MW       0.088700
     18 H2          -1.3130    -1.4780    -2.8750 hc         1 8MW       0.076950
     19 H3           0.2470    -1.9060    -1.9210 hc         1 8MW       0.076950
     20 H4           1.1690     0.3230    -2.4310 hc         1 8MW       0.076950
     21 H5          -0.3910     0.7500    -3.3850 hc         1 8MW       0.076950
     22 H6          -1.9920    -0.0410     3.3050 hc         1 8MW       0.052033
     23 H7          -0.7350     0.8950     4.1250 hc         1 8MW       0.052033
     24 H8          -0.6850    -0.8730     4.1580 hc         1 8MW       0.052033
     25 H10          2.4490     0.0920     5.5840 hc         1 8MW       0.053367
     26 H11          1.0900    -0.9230     5.0800 hc         1 8MW       0.053367
     27 H12          0.9460     0.8400     5.0250 hc         1 8MW       0.053367
     28 C11         -0.9400    -0.0060     3.5600 c3         1 8MW      -0.142400
@<TRIPOS>BOND
     1     9     5 1
     2     5    10 1
     3     5     3 1
     4    13     3 1
     5    13     2 1
     6     3    11 2
     7     2     4 ar
     8     2    14 ar
     9    11    12 1
    10    11    14 1
    11     4     1 ar
    12    14    16 ar
    13     8     7 1
    14     8     6 1
    15     1     6 1
    16     1    15 ar
    17     7     6 1
    18    16    15 ar
    19    16    28 1
    20     6    17 1
    21     7    18 1
    22     7    19 1
    23     8    20 1
    24     8    21 1
    25    28    22 1
    26    28    23 1
    27    28    24 1
    28    12    25 1
    29    12    26 1
    30    12    27 1
@<TRIPOS>SUBSTRUCTURE
     1 8MW         1 TEMP              0 ****  ****    0 ROOT
