@<TRIPOS>MOLECULE
8MX
   51    55     1     0     0
SMALL
bcc


@<TRIPOS>ATOM
      1 C01          0.0000     0.0000     0.0000 c3         1 8MX      -0.013800
      2 C02          1.5080     0.0000     0.0000 ca         1 8MX      -0.108300
      3 C03          2.2050     0.0000     1.2020 ca         1 8MX       0.028600
      4 C04          3.6110     0.0000     1.1800 ca         1 8MX      -0.192600
      5 C05          4.2980     0.0020    -0.0370 ca         1 8MX      -0.035000
      6 C06          3.5990     0.0030    -1.2110 ca         1 8MX      -0.011100
      7 C07          2.2020    -0.0050    -1.1990 ca         1 8MX       0.012600
      8 N08          1.5010    -0.0100    -2.4030 nh         1 8MX      -0.384000
      9 C09          1.8210     1.1880    -3.2080 c3         1 8MX       0.149800
     10 C10          2.3490     0.6810    -4.5550 c3         1 8MX      -0.066700
     11 C11          1.9810     1.5890    -5.7060 c3         1 8MX      -0.012400
     12 C12          0.4720     1.5760    -5.9580 c3         1 8MX      -0.031400
     13 C13          0.0470     0.1250    -6.2170 c3         1 8MX       0.148800
     14 N14          0.3150    -0.6610    -5.0110 n7         1 8MX      -0.562200
     15 C15          1.7440    -0.7310    -4.6810 c3         1 8MX       0.116500
     16 C16          1.8290    -1.2120    -3.2030 c3         1 8MX       0.142800
     17 F17          4.2620     0.0030    -2.3890 f          1 8MX      -0.142900
     18 C18          4.3370     0.0000     2.4610 c          1 8MX       0.611900
     19 O19          5.5560     0.0010     2.5010 o          1 8MX      -0.526100
     20 C20          3.5290    -0.0000     3.6930 cc         1 8MX      -0.233400
     21 C21          2.1530    -0.0010     3.5880 cd         1 8MX      -0.131000
     22 N22          1.5280    -0.0010     2.4040 na         1 8MX       0.001200
     23 C23          0.0630    -0.0010     2.3830 cx         1 8MX      -0.006500
     24 C24         -0.6440    -1.3550     2.4630 cx         1 8MX      -0.091400
     25 C25         -0.6610    -0.4100     3.6680 cx         1 8MX      -0.091400
     26 C26          4.1780    -0.0020     5.0110 c          1 8MX       0.983800
     27 O27          5.5240    -0.0020     5.1000 o          1 8MX      -0.875300
     28 O28          3.5020    -0.0020     6.0210 o          1 8MX      -0.875300
     29 H011        -0.3610    -0.1110    -1.0150 hc         1 8MX       0.032700
     30 H013        -0.3610    -0.8240     0.6040 hc         1 8MX       0.032700
     31 H012        -0.3610     0.9350     0.4110 hc         1 8MX       0.032700
     32 H051         5.3810     0.0080    -0.0500 ha         1 8MX       0.134000
     33 H091         0.9270     1.7800    -3.3600 h1         1 8MX       0.027200
     34 H092         2.5820     1.7750    -2.7100 h1         1 8MX       0.027200
     35 H101         3.4280     0.5990    -4.5030 hc         1 8MX       0.042700
     36 H111         2.4920     1.2530    -6.6000 hc         1 8MX       0.010700
     37 H112         2.2910     2.6000    -5.4730 hc         1 8MX       0.010700
     38 H122         0.2410     2.1840    -6.8250 hc         1 8MX       0.021200
     39 H121        -0.0470     1.9580    -5.0870 hc         1 8MX       0.021200
     40 H132         0.6170    -0.2770    -7.0470 h1         1 8MX      -0.001300
     41 H131        -1.0110     0.0920    -6.4450 h1         1 8MX      -0.001300
     42 H141        -0.0450    -1.5870    -5.1300 hn         1 8MX       0.246800
     43 H151         2.3030    -1.3670    -5.3570 h1         1 8MX       0.014700
     44 H162         2.8320    -1.5530    -2.9750 h1         1 8MX       0.025200
     45 H161         1.1050    -1.9960    -3.0190 h1         1 8MX       0.025200
     46 H211         1.5590    -0.0020     4.4940 h4         1 8MX       0.160000
     47 H231        -0.4520     0.7460     1.7910 h1         1 8MX       0.103700
     48 H241         0.0060    -2.2170     2.5540 hc         1 8MX       0.056700
     49 H242        -1.5750    -1.4300     1.9150 hc         1 8MX       0.056700
     50 H252        -0.0220    -0.6950     4.4940 hc         1 8MX       0.056700
     51 H251        -1.6030     0.0920     3.8540 hc         1 8MX       0.056700
@<TRIPOS>BOND
     1     1     2 1   
     2     1    29 1   
     3     1    30 1   
     4     1    31 1   
     5     2     3 ar  
     6     2     7 ar  
     7     3     4 ar  
     8     3    22 1   
     9     4     5 ar  
    10     4    18 1   
    11     5     6 ar  
    12     5    32 1   
    13     6     7 ar  
    14     6    17 1   
    15     7     8 1   
    16     8     9 1   
    17     8    16 1   
    18     9    10 1   
    19     9    33 1   
    20     9    34 1   
    21    10    11 1   
    22    10    15 1   
    23    10    35 1   
    24    11    12 1   
    25    11    36 1   
    26    11    37 1   
    27    12    13 1   
    28    12    38 1   
    29    12    39 1   
    30    13    14 1   
    31    13    40 1   
    32    13    41 1   
    33    14    15 1   
    34    14    42 1   
    35    15    16 1   
    36    15    43 1   
    37    16    44 1   
    38    16    45 1   
    39    18    19 2   
    40    18    20 1   
    41    20    21 2   
    42    20    26 1   
    43    21    22 1   
    44    21    46 1   
    45    22    23 1   
    46    23    24 1   
    47    23    25 1   
    48    23    47 1   
    49    24    25 1   
    50    24    48 1   
    51    24    49 1   
    52    25    50 1   
    53    25    51 1   
    54    26    27 1   
    55    26    28 1   
@<TRIPOS>SUBSTRUCTURE
     1 8MX         1 TEMP              0 ****  ****    0 ROOT
