@<TRIPOS>MOLECULE
molecule
   51    55     1     0     0
SMALL
bcc


@<TRIPOS>ATOM
      1 C01          0.0000     0.0000     0.0000 c3         1 8MX      -0.066800
      2 C02          1.5080     0.0000     0.0000 ca         1 8MX      -0.104300
      3 C03          2.2050     0.0000     1.2020 ca         1 8MX       0.189600
      4 C04          3.6110     0.0000     1.1800 ca         1 8MX      -0.187600
      5 C05          4.2980     0.0020    -0.0370 ca         1 8MX      -0.078000
      6 C06          3.5990     0.0030    -1.2110 ca         1 8MX       0.017900
      7 C07          2.2020    -0.0050    -1.1990 ca         1 8MX       0.074600
      8 N08          1.5010    -0.0100    -2.4030 nh         1 8MX      -0.588000
      9 C09          1.8210     1.1880    -3.2080 c3         1 8MX       0.175800
     10 C10          2.3490     0.6810    -4.5550 c3         1 8MX      -0.085700
     11 C11          1.9810     1.5890    -5.7060 c3         1 8MX      -0.070400
     12 C12          0.4720     1.5760    -5.9580 c3         1 8MX      -0.079400
     13 C13          0.0470     0.1250    -6.2170 c3         1 8MX       0.160800
     14 N14          0.3150    -0.6610    -5.0110 n7         1 8MX      -0.803200
     15 C15          1.7440    -0.7310    -4.6810 c3         1 8MX       0.157500
     16 C16          1.8290    -1.2120    -3.2030 c3         1 8MX       0.165800
     17 F17          4.2620     0.0030    -2.3890 f          1 8MX      -0.162900
     18 C18          4.3370     0.0000     2.4610 c          1 8MX       0.568900
     19 O19          5.5560     0.0010     2.5010 o          1 8MX      -0.501100
     20 C20          3.5290    -0.0000     3.6930 cc         1 8MX      -0.257400
     21 C21          2.1530    -0.0010     3.5880 cd         1 8MX       0.050000
     22 N22          1.5280    -0.0010     2.4040 na         1 8MX      -0.479800
     23 C23          0.0630    -0.0010     2.3830 cx         1 8MX       0.142500
     24 C24         -0.6440    -1.3550     2.4630 cx         1 8MX      -0.153400
     25 C25         -0.6610    -0.4100     3.6680 cx         1 8MX      -0.153400
     26 C26          4.1780    -0.0020     5.0110 c          1 8MX       0.895800
     27 O27          5.5240    -0.0020     5.1000 o          1 8MX      -0.828800
     28 O28          3.5020    -0.0020     6.0210 o          1 8MX      -0.828800
     29 H011        -0.3610    -0.1110    -1.0150 hc         1 8MX       0.052700
     30 H013        -0.3610    -0.8240     0.6040 hc         1 8MX       0.052700
     31 H012        -0.3610     0.9350     0.4110 hc         1 8MX       0.052700
     32 H051         5.3810     0.0080    -0.0500 ha         1 8MX       0.164000
     33 H091         0.9270     1.7800    -3.3600 h1         1 8MX       0.053200
     34 H092         2.5820     1.7750    -2.7100 h1         1 8MX       0.053200
     35 H101         3.4280     0.5990    -4.5030 hc         1 8MX       0.064700
     36 H111         2.4920     1.2530    -6.6000 hc         1 8MX       0.038200
     37 H112         2.2910     2.6000    -5.4730 hc         1 8MX       0.038200
     38 H122         0.2410     2.1840    -6.8250 hc         1 8MX       0.048200
     39 H121        -0.0470     1.9580    -5.0870 hc         1 8MX       0.048200
     40 H132         0.6170    -0.2770    -7.0470 h1         1 8MX       0.024200
     41 H131        -1.0110     0.0920    -6.4450 h1         1 8MX       0.024200
     42 H141        -0.0450    -1.5870    -5.1300 hn         1 8MX       0.348800
     43 H151         2.3030    -1.3670    -5.3570 h1         1 8MX       0.033700
     44 H162         2.8320    -1.5530    -2.9750 h1         1 8MX       0.052700
     45 H161         1.1050    -1.9960    -3.0190 h1         1 8MX       0.052700
     46 H211         1.5590    -0.0020     4.4940 h4         1 8MX       0.179000
     47 H231        -0.4520     0.7460     1.7910 h1         1 8MX       0.112700
     48 H241         0.0060    -2.2170     2.5540 hc         1 8MX       0.083700
     49 H242        -1.5750    -1.4300     1.9150 hc         1 8MX       0.083700
     50 H252        -0.0220    -0.6950     4.4940 hc         1 8MX       0.083700
     51 H251        -1.6030     0.0920     3.8540 hc         1 8MX       0.083700
@<TRIPOS>BOND
     1    12    13 1   
     2    12    11 1   
     3    13    14 1   
     4    11    10 1   
     5    14    15 1   
     6    10    15 1   
     7    10     9 1   
     8    15    16 1   
     9     9     8 1   
    10     1     2 1   
    11     8    16 1   
    12     8     7 1   
    13    25    24 1   
    14    25    23 1   
    15    24    23 1   
    16     2     7 ar  
    17     2     3 ar  
    18     7     6 ar  
    19    23    22 1   
    20     3    22 1   
    21     3     4 ar  
    22    22    21 1   
    23     6    17 1   
    24     6     5 ar  
    25     4     5 ar  
    26     4    18 1   
    27    21    20 2   
    28    20    18 1   
    29    20    26 1   
    30    18    19 2   
    31    28    26 1   
    32    26    27 1   
    33     1    29 1   
    34     1    30 1   
    35     1    31 1   
    36     5    32 1   
    37     9    33 1   
    38     9    34 1   
    39    10    35 1   
    40    11    36 1   
    41    11    37 1   
    42    12    38 1   
    43    12    39 1   
    44    13    40 1   
    45    13    41 1   
    46    14    42 1   
    47    15    43 1   
    48    16    44 1   
    49    16    45 1   
    50    21    46 1   
    51    23    47 1   
    52    24    48 1   
    53    24    49 1   
    54    25    50 1   
    55    25    51 1   
@<TRIPOS>SUBSTRUCTURE
     1 8MX         1 TEMP              0 ****  ****    0 ROOT
