@<TRIPOS>MOLECULE
molecule
   36    38     1     0     0
SMALL
bcc


@<TRIPOS>ATOM
      1 C10          0.0000     0.0000     0.0000 ca         1 8MY       0.742200
      2 C13          2.0550     0.0000     1.2210 ca         1 8MY       0.629800
      3 C15          4.3030    -0.7120     2.0460 cc         1 8MY      -0.125300
      4 C17          4.8150    -2.5900     1.0000 cd         1 8MY       0.344600
      5 C22         -0.6440    -0.4680     5.6960 ca         1 8MY      -0.152500
      6 C03         -1.2260    -2.5860     6.6630 ca         1 8MY      -0.015000
      7 C04         -1.1340    -3.1810     5.4150 ca         1 8MY      -0.080500
      8 C05         -0.7970    -2.4200     4.3080 ca         1 8MY      -0.152500
      9 C06         -0.5520    -1.0630     4.4480 ca         1 8MY       0.207600
     10 C08          0.0180     0.0010     2.3080 ca         1 8MY       0.976900
     11 C12          1.3940     0.0000     0.0000 ca         1 8MY      -0.391600
     12 C16          5.2590    -1.6800     1.9170 cd         1 8MY      -0.319300
     13 C18          5.2210    -3.9800     0.5150 c3         1 8MY       0.134100
     14 C23         -0.9810    -1.2300     6.8040 ca         1 8MY      -0.080500
     15 N01         -1.9270    -4.0330     8.7830 n1         1 8MY      -0.365800
     16 N07         -0.6910     0.0260     3.4980 nu         1 8MY      -0.812300
     17 N09         -0.6460     0.0010     1.1630 nb         1 8MY      -0.804000
     18 N11         -0.7260    -0.0400    -1.2570 nv         1 8MY      -1.019500
     19 N14          3.2990    -1.0150     1.2310 na         1 8MY       0.034600
     20 N20          3.6200    -2.1940     0.5740 nc         1 8MY      -0.533800
     21 N21          1.3420     0.0010     2.3440 nb         1 8MY      -0.794000
     22 O19          6.5960    -4.1610     0.7140 oh         1 8MY      -0.603800
     23 H1           4.3560     0.1520     2.6980 h4         1 8MY       0.176000
     24 H2          -0.4530     0.5920     5.8060 ha         1 8MY       0.148500
     25 H3          -1.3250    -4.2420     5.3060 ha         1 8MY       0.146500
     26 H4          -0.7250    -2.8850     3.3320 ha         1 8MY       0.148500
     27 H5           1.9360    -0.0010    -0.9380 ha         1 8MY       0.166000
     28 H6           6.2020    -1.7200     2.4490 ha         1 8MY       0.163000
     29 H7           4.6740    -4.7310     1.0720 h1         1 8MY       0.034200
     30 H8           4.9930    -4.0760    -0.5400 h1         1 8MY       0.034200
     31 H9          -1.0530    -0.7650     7.7790 ha         1 8MY       0.146500
     32 H10         -1.3160     0.7830     3.6920 hn         1 8MY       0.480800
     33 H11         -1.7270    -0.0550    -1.2560 hn         1 8MY       0.447800
     34 H12         -0.2260    -0.0490    -2.1240 hn         1 8MY       0.447800
     35 H13          6.8650    -4.9770     0.3260 ho         1 8MY       0.407000
     36 C02         -1.6390    -3.4170     7.8760 cg         1 8MY       0.231800
@<TRIPOS>BOND
     1    18     1 1
     2     1    17 ar
     3     1    11 ar
     4    17    10 ar
     5    11     2 ar
     6    22    13 1
     7    10    16 1
     8    10    21 ar
     9    16     9 1
    10     2    21 ar
    11     2    19 1
    12     5     9 ar
    13     5    14 ar
    14    20    19 1
    15    20     4 2
    16    19     3 1
    17     9     8 ar
    18    14     6 ar
    19     4    13 1
    20     4    12 1
    21     3    12 2
    22     8     7 ar
    23     6     7 ar
    24     6    36 1
    25    36    15 3
    26     3    23 1
    27     5    24 1
    28     7    25 1
    29     8    26 1
    30    11    27 1
    31    12    28 1
    32    13    29 1
    33    13    30 1
    34    14    31 1
    35    16    32 1
    36    18    33 1
    37    18    34 1
    38    22    35 1
@<TRIPOS>SUBSTRUCTURE
     1 8MY         1 TEMP              0 ****  ****    0 ROOT
