@<TRIPOS>MOLECULE
8MY
   36    38     1     0     0
SMALL
bcc


@<TRIPOS>ATOM
      1 C10          0.0000     0.0000     0.0000 ca         1 8MY       0.545200
      2 C13          2.0550     0.0000     1.2210 ca         1 8MY       0.429800
      3 C15          4.3030    -0.7120     2.0460 cc         1 8MY      -0.264300
      4 C17          4.8150    -2.5900     1.0000 cd         1 8MY       0.361600
      5 C22         -0.6440    -0.4680     5.6960 ca         1 8MY      -0.123500
      6 C03         -1.2260    -2.5860     6.6630 ca         1 8MY       0.041000
      7 C04         -1.1340    -3.1810     5.4150 ca         1 8MY      -0.063000
      8 C05         -0.7970    -2.4200     4.3080 ca         1 8MY      -0.123500
      9 C06         -0.5520    -1.0630     4.4480 ca         1 8MY       0.061600
     10 C08          0.0180     0.0010     2.3080 ca         1 8MY       0.736900
     11 C12          1.3940     0.0000     0.0000 ca         1 8MY      -0.371600
     12 C16          5.2590    -1.6800     1.9170 cd         1 8MY      -0.291300
     13 C18          5.2210    -3.9800     0.5150 c3         1 8MY       0.226100
     14 C23         -0.9810    -1.2300     6.8040 ca         1 8MY      -0.063000
     15 N01         -1.9270    -4.0330     8.7830 n1         1 8MY      -0.385800
     16 N07         -0.6910     0.0260     3.4980 nu         1 8MY      -0.402300
     17 N09         -0.6460     0.0010     1.1630 nb         1 8MY      -0.677000
     18 N11         -0.7260    -0.0400    -1.2570 nv         1 8MY      -0.545500
     19 N14          3.2990    -1.0150     1.2310 na         1 8MY       0.478600
     20 N20          3.6200    -2.1940     0.5740 nc         1 8MY      -0.697800
     21 N21          1.3420     0.0010     2.3440 nb         1 8MY      -0.650000
     22 O19          6.5960    -4.1610     0.7140 oh         1 8MY      -0.590800
     23 H1           4.3560     0.1520     2.6980 h4         1 8MY       0.151000
     24 H2          -0.4530     0.5920     5.8060 ha         1 8MY       0.118500
     25 H3          -1.3250    -4.2420     5.3060 ha         1 8MY       0.114500
     26 H4          -0.7250    -2.8850     3.3320 ha         1 8MY       0.118500
     27 H5           1.9360    -0.0010    -0.9380 ha         1 8MY       0.142000
     28 H6           6.2020    -1.7200     2.4490 ha         1 8MY       0.140000
     29 H7           4.6740    -4.7310     1.0720 h1         1 8MY      -0.007300
     30 H8           4.9930    -4.0760    -0.5400 h1         1 8MY      -0.007300
     31 H9          -1.0530    -0.7650     7.7790 ha         1 8MY       0.114500
     32 H10         -1.3160     0.7830     3.6920 hn         1 8MY       0.316800
     33 H11         -1.7270    -0.0550    -1.2560 hn         1 8MY       0.278800
     34 H12         -0.2260    -0.0490    -2.1240 hn         1 8MY       0.278800
     35 H13          6.8650    -4.9770     0.3260 ho         1 8MY       0.390000
     36 C02         -1.6390    -3.4170     7.8760 cg         1 8MY       0.219800
@<TRIPOS>BOND
     1     1    11 ar  
     2     1    17 ar  
     3     1    18 1   
     4     2    11 ar  
     5     2    19 1   
     6     2    21 ar  
     7     3    12 2   
     8     3    19 1   
     9     3    23 1   
    10     4    12 1   
    11     4    13 1   
    12     4    20 2   
    13     5     9 ar  
    14     5    14 ar  
    15     5    24 1   
    16     6     7 ar  
    17     6    14 ar  
    18     6    36 1   
    19     7     8 ar  
    20     7    25 1   
    21     8     9 ar  
    22     8    26 1   
    23     9    16 1   
    24    10    16 1   
    25    10    17 ar  
    26    10    21 ar  
    27    11    27 1   
    28    12    28 1   
    29    13    22 1   
    30    13    29 1   
    31    13    30 1   
    32    14    31 1   
    33    15    36 3   
    34    16    32 1   
    35    18    33 1   
    36    18    34 1   
    37    19    20 1   
    38    22    35 1   
@<TRIPOS>SUBSTRUCTURE
     1 8MY         1 TEMP              0 ****  ****    0 ROOT
