@<TRIPOS>MOLECULE
molecule
   24    26     1     0     0
SMALL
bcc


@<TRIPOS>ATOM
      1 C4           0.0000     0.0000     0.0000 ca         1 8MZ      -0.092000
      2 C5           1.3920     0.0000     0.0000 ca         1 8MZ      -0.117500
      3 C6           2.1340    -0.0000    -1.2850 cc         1 8MZ       0.429800
      4 C7           3.4760     0.0010    -1.3400 cd         1 8MZ      -0.160400
      5 C8           2.2680    -0.0090    -3.5210 cc         1 8MZ       0.735300
      6 N2          -2.0420    -0.0000     1.5280 ns         1 8MZ      -0.448100
      7 C9          -2.1570    -0.0010     2.8690 c          1 8MZ       0.800500
      8 N3          -0.9330    -0.0010     3.4290 ns         1 8MZ      -0.448100
      9 O           -3.2080    -0.0010     3.4810 o          1 8MZ      -0.660500
     10 C2           0.0170    -0.0010     2.4090 ca         1 8MZ      -0.003400
     11 C1           1.4050    -0.0010     2.4040 ca         1 8MZ      -0.128000
     12 C3          -0.6870     0.0000     1.2020 ca         1 8MZ      -0.010400
     13 C            2.0910     0.0000     1.2090 ca         1 8MZ      -0.113000
     14 N            1.5150    -0.0050    -2.4650 nd         1 8MZ      -0.693000
     15 S            3.9600     0.0020    -3.0340 ss         1 8MZ      -0.291300
     16 H1          -0.5420     0.0970    -0.9330 ha         1 8MZ       0.159000
     17 H2           1.6020    -0.8820    -5.2820 hn         1 8MZ       0.445800
     18 H3           1.7000     0.8480    -5.3240 hn         1 8MZ       0.445800
     19 H4           4.1460     0.0060    -0.4880 h4         1 8MZ       0.181000
     20 H5          -2.8010    -0.0010     0.8750 hn         1 8MZ       0.363500
     21 H6          -0.7380    -0.0010     4.4100 hn         1 8MZ       0.361500
     22 H7           1.9500    -0.0010     3.3410 ha         1 8MZ       0.137000
     23 H8           3.1740     0.0000     1.2070 ha         1 8MZ       0.137000
     24 N1           1.8110    -0.0140    -4.8290 nv         1 8MZ      -1.029500
@<TRIPOS>BOND
     1    24     5 1
     2     5    14 2
     3     5    15 1
     4    14     3 1
     5    15     4 1
     6     3     4 2
     7     3     2 1
     8     1     2 ar
     9     1    12 ar
    10     6    12 1
    11     6     7 1
    12     2    13 ar
    13    12    10 ar
    14     7     9 2
    15     7     8 1
    16    13    11 ar
    17    10     8 1
    18    10    11 ar
    19     1    16 1
    20    24    17 1
    21    24    18 1
    22     4    19 1
    23     6    20 1
    24     8    21 1
    25    11    22 1
    26    13    23 1
@<TRIPOS>SUBSTRUCTURE
     1 8MZ         1 TEMP              0 ****  ****    0 ROOT
