@<TRIPOS>MOLECULE
8MZ
   24    26     1     0     0
SMALL
bcc


@<TRIPOS>ATOM
      1 C4           0.0000     0.0000     0.0000 ca         1 8MZ      -0.054000
      2 C5           1.3920     0.0000     0.0000 ca         1 8MZ      -0.127500
      3 C6           2.1340    -0.0000    -1.2850 cc         1 8MZ       0.389800
      4 C7           3.4760     0.0010    -1.3400 cd         1 8MZ      -0.092400
      5 C8           2.2680    -0.0090    -3.5210 cd         1 8MZ       0.570300
      6 N2          -2.0420    -0.0000     1.5280 ns         1 8MZ       0.023900
      7 C9          -2.1570    -0.0010     2.8690 c          1 8MZ       0.555500
      8 N3          -0.9330    -0.0010     3.4290 ns         1 8MZ       0.023900
      9 O           -3.2080    -0.0010     3.4810 o          1 8MZ      -0.717500
     10 C2           0.0170    -0.0010     2.4090 ca         1 8MZ      -0.162400
     11 C1           1.4050    -0.0010     2.4040 ca         1 8MZ      -0.085000
     12 C3          -0.6870     0.0000     1.2020 ca         1 8MZ      -0.167400
     13 C            2.0910     0.0000     1.2090 ca         1 8MZ      -0.091000
     14 N            1.5150    -0.0050    -2.4650 nc         1 8MZ      -0.562000
     15 S            3.9600     0.0020    -3.0340 ss         1 8MZ      -0.386300
     16 H1          -0.5420     0.0970    -0.9330 ha         1 8MZ       0.127000
     17 H2           1.6020    -0.8820    -5.2820 hn         1 8MZ       0.277800
     18 H3           1.7000     0.8480    -5.3240 hn         1 8MZ       0.277800
     19 H4           4.1460     0.0060    -0.4880 h4         1 8MZ       0.162000
     20 H5          -2.8010    -0.0010     0.8750 hn         1 8MZ       0.192500
     21 H6          -0.7380    -0.0010     4.4100 hn         1 8MZ       0.190500
     22 H7           1.9500    -0.0010     3.3410 ha         1 8MZ       0.107000
     23 H8           3.1740     0.0000     1.2070 ha         1 8MZ       0.110000
     24 N1           1.8110    -0.0140    -4.8290 nv         1 8MZ      -0.562500
@<TRIPOS>BOND
     1     1     2 ar  
     2     1    12 ar  
     3     1    16 1   
     4     2     3 1   
     5     2    13 ar  
     6     3     4 2   
     7     3    14 1   
     8     4    15 1   
     9     4    19 1   
    10     5    14 2   
    11     5    15 1   
    12     5    24 1   
    13     6     7 1   
    14     6    12 1   
    15     6    20 1   
    16     7     8 1   
    17     7     9 2   
    18     8    10 1   
    19     8    21 1   
    20    10    11 ar  
    21    10    12 ar  
    22    11    13 ar  
    23    11    22 1   
    24    13    23 1   
    25    17    24 1   
    26    18    24 1   
@<TRIPOS>SUBSTRUCTURE
     1 8MZ         1 TEMP              0 ****  ****    0 ROOT
