@<TRIPOS>MOLECULE
molecule
   63    65     1     0     0
SMALL
bcc


@<TRIPOS>ATOM
      1 C1           0.0000     0.0000     0.0000 ca         1 8N1      -0.087300
      2 C2           1.3850     0.0000     0.0000 ca         1 8N1      -0.134000
      3 C3           2.0820     0.0000     1.1950 ca         1 8N1      -0.124000
      4 C4           1.4010    -0.0020     2.3950 ca         1 8N1      -0.117000
      5 C5           0.0050    -0.0020     2.4010 ca         1 8N1      -0.046800
      6 C6          -0.6920    -0.0010     1.1930 ca         1 8N1      -0.108000
      7 C7          -0.7300    -0.0040     3.6840 ce         1 8N1      -0.079400
      8 C8          -1.4810     1.0360     4.0180 c2         1 8N1      -0.211000
      9 C10         -0.3650     0.6750    -3.6170 c          1 8N1       0.784100
     10 C11         -0.7510     0.0070    -1.3060 c3         1 8N1       0.191700
     11 C12         -1.1210    -1.4280    -1.6890 c3         1 8N1      -0.101100
     12 C13         -2.0260     0.8390    -1.1570 c3         1 8N1      -0.101100
     13 C17         -0.1020     1.4010    -5.8680 ca         1 8N1       0.124600
     14 C18         -1.4430     1.7170    -6.0420 ca         1 8N1      -0.174000
     15 C19         -1.9520     1.9050    -7.3130 ca         1 8N1      -0.059000
     16 C20         -1.1280     1.7800    -8.4150 ca         1 8N1      -0.066600
     17 C21          0.2160     1.4640    -8.2470 ca         1 8N1       0.235600
     18 C22          0.7290     1.2790    -6.9710 ca         1 8N1      -0.238000
     19 C24          2.4650     1.0030    -9.1840 c3         1 8N1       0.430300
     20 C25          2.9770     0.1680   -10.3790 c3         1 8N1       0.082100
     21 C26          4.4190     0.6760   -10.6010 c3         1 8N1       0.085100
     22 C27          4.6070     1.7590    -9.5150 c3         1 8N1       0.142100
     23 C29          5.4400     2.9210   -10.0590 c3         1 8N1       0.154400
     24 C9          -0.6270    -1.1880     4.6100 c3         1 8N1      -0.049900
     25 N1           1.0490     1.3360    -9.3620 nu         1 8N1      -0.804600
     26 N3           0.0930     0.5890    -2.3520 ns         1 8N1      -0.596900
     27 N4           0.4110     1.2110    -4.5800 ns         1 8N1      -0.490100
     28 O2          -1.4790     0.2710    -3.8890 o          1 8N1      -0.646100
     29 O3           3.2690     2.2020    -9.2000 os         1 8N1      -0.399600
     30 O4           2.9810    -1.2240   -10.0520 oh         1 8N1      -0.594800
     31 O5           4.5540     1.2470   -11.9050 oh         1 8N1      -0.594800
     32 O6           5.7010     3.8530    -9.0080 oh         1 8N1      -0.605800
     33 Cl1         -1.7700     2.0170   -10.0110 cl         1 8N1      -0.124400
     34 H1           1.9240     0.0010    -0.9390 ha         1 8N1       0.125000
     35 H2           3.1650    -0.0000     1.1890 ha         1 8N1       0.131000
     36 H3           1.9480    -0.0020     3.3300 ha         1 8N1       0.135000
     37 H4          -1.7760    -0.0010     1.1910 ha         1 8N1       0.143000
     38 H5          -2.0200     1.0350     4.9570 ha         1 8N1       0.118000
     39 H6          -1.5550     1.8870     3.3510 ha         1 8N1       0.118000
     40 H7          -2.0460    -1.4250    -2.2530 hc         1 8N1       0.050700
     41 H8          -1.2490    -2.0200    -0.7900 hc         1 8N1       0.050700
     42 H9          -0.3310    -1.8560    -2.2940 hc         1 8N1       0.050700
     43 H10         -1.7740     1.8210    -0.7750 hc         1 8N1       0.050700
     44 H11         -2.7010     0.3450    -0.4680 hc         1 8N1       0.050700
     45 H12         -2.5070     0.9400    -2.1230 hc         1 8N1       0.050700
     46 H13         -2.0920     1.8140    -5.1800 ha         1 8N1       0.167000
     47 H14         -2.9980     2.1520    -7.4460 ha         1 8N1       0.146000
     48 H15          1.7760     1.0330    -6.8380 ha         1 8N1       0.140000
     49 H16          2.6170     0.4630    -8.2580 h2         1 8N1       0.083700
     50 H17          2.3720     0.3550   -11.2580 h1         1 8N1       0.068700
     51 H18          5.1290    -0.1290   -10.4580 h1         1 8N1       0.060700
     52 H19          5.0760     1.3300    -8.6370 h1         1 8N1       0.064700
     53 H20          4.8940     3.4150   -10.8530 h1         1 8N1       0.040200
     54 H21          6.3780     2.5420   -10.4460 h1         1 8N1       0.040200
     55 H22         -1.6220    -1.5160     4.8880 hc         1 8N1       0.044367
     56 H23         -0.1080    -1.9950     4.1080 hc         1 8N1       0.044367
     57 H24         -0.0790    -0.9040     5.5000 hc         1 8N1       0.044367
     58 H25          0.6850     1.5000   -10.2800 hn         1 8N1       0.454800
     59 H26          0.9910     0.9640    -2.1190 hn         1 8N1       0.313500
     60 H27          1.3790     1.3870    -4.3980 hn         1 8N1       0.319500
     61 H28          2.7740    -1.7280   -10.8210 ho         1 8N1       0.411000
     62 H29          5.0230     0.6490   -12.4630 ho         1 8N1       0.405000
     63 H30          6.3570     4.4690    -9.2900 ho         1 8N1       0.403000
@<TRIPOS>BOND
     1    33    16 1
     2    31    21 1
     3    20    21 1
     4    20    30 1
     5    20    19 1
     6    21    22 1
     7    32    23 1
     8    25    19 1
     9    25    17 1
    10    16    15 ar
    11    16    17 ar
    12    23    22 1
    13    19    29 1
    14    15    14 ar
    15    22    29 1
    16    17    18 ar
    17    14    13 ar
    18    18    13 ar
    19    13    27 1
    20    27     9 1
    21    28     9 2
    22     9    26 1
    23    26    10 1
    24    24     7 1
    25    12    10 1
    26    10     1 1
    27    10    11 1
    28     6     1 ar
    29     6     5 ar
    30     7     8 2
    31     7     5 1
    32     1     2 ar
    33     5     4 ar
    34     2     3 ar
    35     4     3 ar
    36     2    34 1
    37     3    35 1
    38     4    36 1
    39     6    37 1
    40     8    38 1
    41     8    39 1
    42    11    40 1
    43    11    41 1
    44    11    42 1
    45    12    43 1
    46    12    44 1
    47    12    45 1
    48    14    46 1
    49    15    47 1
    50    18    48 1
    51    19    49 1
    52    20    50 1
    53    21    51 1
    54    22    52 1
    55    23    53 1
    56    23    54 1
    57    24    55 1
    58    24    56 1
    59    24    57 1
    60    25    58 1
    61    26    59 1
    62    27    60 1
    63    30    61 1
    64    31    62 1
    65    32    63 1
@<TRIPOS>SUBSTRUCTURE
     1 8N1         1 TEMP              0 ****  ****    0 ROOT
