@<TRIPOS>MOLECULE
8N1
   63    65     1     0     0
SMALL
bcc


@<TRIPOS>ATOM
      1 C1           0.0000     0.0000     0.0000 ca         1 8N1      -0.095300
      2 C2           1.3850     0.0000     0.0000 ca         1 8N1      -0.116000
      3 C3           2.0820     0.0000     1.1950 ca         1 8N1      -0.093000
      4 C4           1.4010    -0.0020     2.3950 ca         1 8N1      -0.093000
      5 C5           0.0050    -0.0020     2.4010 ca         1 8N1      -0.038800
      6 C6          -0.6920    -0.0010     1.1930 ca         1 8N1      -0.085000
      7 C7          -0.7300    -0.0040     3.6840 ce         1 8N1      -0.082400
      8 C8          -1.4810     1.0360     4.0180 c2         1 8N1      -0.162000
      9 C10         -0.3650     0.6750    -3.6170 c          1 8N1       0.572100
     10 C11         -0.7510     0.0070    -1.3060 c3         1 8N1       0.093700
     11 C12         -1.1210    -1.4280    -1.6890 c3         1 8N1      -0.027600
     12 C13         -2.0260     0.8390    -1.1570 c3         1 8N1      -0.027600
     13 C17         -0.1020     1.4010    -5.8680 ca         1 8N1      -0.017400
     14 C18         -1.4430     1.7170    -6.0420 ca         1 8N1      -0.153000
     15 C19         -1.9520     1.9050    -7.3130 ca         1 8N1      -0.031000
     16 C20         -1.1280     1.7800    -8.4150 ca         1 8N1      -0.125600
     17 C21          0.2160     1.4640    -8.2470 ca         1 8N1       0.096600
     18 C22          0.7290     1.2790    -6.9710 ca         1 8N1      -0.223000
     19 C24          2.4650     1.0030    -9.1840 c3         1 8N1       0.332300
     20 C25          2.9770     0.1680   -10.3790 c3         1 8N1       0.119100
     21 C26          4.4190     0.6760   -10.6010 c3         1 8N1       0.129100
     22 C27          4.6070     1.7590    -9.5150 c3         1 8N1       0.169100
     23 C29          5.4400     2.9210   -10.0590 c3         1 8N1       0.225400
     24 C9          -0.6270    -1.1880     4.6100 c3         1 8N1       0.062100
     25 N1           1.0490     1.3360    -9.3620 nu         1 8N1      -0.412600
     26 N3           0.0930     0.5890    -2.3520 ns         1 8N1      -0.223900
     27 N4           0.4110     1.2110    -4.5800 ns         1 8N1      -0.054100
     28 O2          -1.4790     0.2710    -3.8890 o          1 8N1      -0.692100
     29 O3           3.2690     2.2020    -9.2000 os         1 8N1      -0.390600
     30 O4           2.9810    -1.2240   -10.0520 oh         1 8N1      -0.575800
     31 O5           4.5540     1.2470   -11.9050 oh         1 8N1      -0.574800
     32 O6           5.7010     3.8530    -9.0080 oh         1 8N1      -0.587800
     33 Cl1         -1.7700     2.0170   -10.0110 cl         1 8N1      -0.040400
     34 H1           1.9240     0.0010    -0.9390 ha         1 8N1       0.105000
     35 H2           3.1650    -0.0000     1.1890 ha         1 8N1       0.103000
     36 H3           1.9480    -0.0020     3.3300 ha         1 8N1       0.108000
     37 H4          -1.7760    -0.0010     1.1910 ha         1 8N1       0.123000
     38 H5          -1.5550     1.8870     3.3520 ha         1 8N1       0.089500
     39 H6          -2.0200     1.0350     4.9570 ha         1 8N1       0.089500
     40 H7          -0.3090    -1.8740    -2.2500 hc         1 8N1       0.022700
     41 H8          -1.3000    -2.0070    -0.7900 hc         1 8N1       0.022700
     42 H9          -2.0180    -1.4200    -2.2970 hc         1 8N1       0.022700
     43 H10         -2.7000     0.3460    -0.4660 hc         1 8N1       0.022700
     44 H11         -1.7740     1.8210    -0.7770 hc         1 8N1       0.022700
     45 H12         -2.5080     0.9380    -2.1220 hc         1 8N1       0.022700
     46 H13         -2.0920     1.8140    -5.1800 ha         1 8N1       0.146000
     47 H14         -2.9980     2.1520    -7.4460 ha         1 8N1       0.111000
     48 H15          1.7760     1.0330    -6.8380 ha         1 8N1       0.125000
     49 H16          2.6170     0.4630    -8.2580 h2         1 8N1       0.051700
     50 H17          2.3720     0.3550   -11.2580 h1         1 8N1       0.033700
     51 H18          5.1290    -0.1290   -10.4580 h1         1 8N1       0.025700
     52 H19          5.0760     1.3300    -8.6370 h1         1 8N1       0.028700
     53 H20          6.3780     2.5420   -10.4460 h1         1 8N1       0.001700
     54 H21          4.8940     3.4150   -10.8530 h1         1 8N1       0.001700
     55 H22         -1.6150    -1.4560     4.9650 hc         1 8N1       0.008367
     56 H23         -0.1950    -2.0260     4.0770 hc         1 8N1       0.008367
     57 H24          0.0020    -0.9330     5.4540 hc         1 8N1       0.008367
     58 H25          0.6890     1.5150   -10.2790 hn         1 8N1       0.303800
     59 H26          0.9970     0.9500    -2.1220 hn         1 8N1       0.179500
     60 H27          1.3800     1.3860    -4.3990 hn         1 8N1       0.161500
     61 H28          2.7270    -1.7260   -10.8080 ho         1 8N1       0.395000
     62 H29          4.9960     0.6360   -12.4710 ho         1 8N1       0.390000
     63 H30          6.3520     4.4730    -9.2930 ho         1 8N1       0.389000
@<TRIPOS>BOND
     1     1     2 ar  
     2     1     6 ar  
     3     1    10 1   
     4     2     3 ar  
     5     2    34 1   
     6     3     4 ar  
     7     3    35 1   
     8     4     5 ar  
     9     4    36 1   
    10     5     6 ar  
    11     5     7 1   
    12     6    37 1   
    13     7     8 2   
    14     7    24 1   
    15     8    38 1   
    16     8    39 1   
    17     9    26 1   
    18     9    27 1   
    19     9    28 2   
    20    10    11 1   
    21    10    12 1   
    22    10    26 1   
    23    11    40 1   
    24    11    41 1   
    25    11    42 1   
    26    12    43 1   
    27    12    44 1   
    28    12    45 1   
    29    13    14 ar  
    30    13    18 ar  
    31    13    27 1   
    32    14    15 ar  
    33    14    46 1   
    34    15    16 ar  
    35    15    47 1   
    36    16    17 ar  
    37    16    33 1   
    38    17    18 ar  
    39    17    25 1   
    40    18    48 1   
    41    19    20 1   
    42    19    25 1   
    43    19    29 1   
    44    19    49 1   
    45    20    21 1   
    46    20    30 1   
    47    20    50 1   
    48    21    22 1   
    49    21    31 1   
    50    21    51 1   
    51    22    23 1   
    52    22    29 1   
    53    22    52 1   
    54    23    32 1   
    55    23    53 1   
    56    23    54 1   
    57    24    55 1   
    58    24    56 1   
    59    24    57 1   
    60    25    58 1   
    61    26    59 1   
    62    27    60 1   
    63    30    61 1   
    64    31    62 1   
    65    32    63 1   
@<TRIPOS>SUBSTRUCTURE
     1 8N1         1 TEMP              0 ****  ****    0 ROOT
