@<TRIPOS>MOLECULE
molecule
   26    26     1     0     0
SMALL
bcc


@<TRIPOS>ATOM
      1 O3           0.0000     0.0000     0.0000 o          1 8N2      -0.839800
      2 C4           3.4480     0.0010    -3.7150 ca         1 8N2      -0.165000
      3 C5           4.1440     0.0010    -2.5000 ca         1 8N2       0.006200
      4 C6           5.5470     0.0020    -2.5040 ca         1 8N2       0.065100
      5 C7           6.5610    -1.2730    -0.7740 c3         1 8N2       0.136700
      6 C8           3.4090     0.0010    -1.2270 ce         1 8N2      -0.174200
      7 C9           2.0580     0.0000    -1.2270 cf         1 8N2      -0.128200
      8 C10          1.3490     0.0000     0.0000 c          1 8N2       0.858800
      9 O2           1.9570     0.0000     1.0540 o          1 8N2      -0.839800
     10 C3           4.1410    -0.0030    -4.9040 ca         1 8N2      -0.101000
     11 C2           5.5260    -0.0030    -4.9080 ca         1 8N2      -0.248000
     12 O1           6.2330     0.0010    -1.3320 os         1 8N2      -0.331900
     13 C1           6.2310     0.0030    -3.7150 ca         1 8N2       0.116100
     14 O            7.5900     0.0040    -3.7270 os         1 8N2      -0.321900
     15 C            8.2270     0.0050    -5.0060 c3         1 8N2       0.130700
     16 H2           2.3650     0.0010    -3.7180 ha         1 8N2       0.148000
     17 H3           7.5980    -1.5040    -0.9880 h1         1 8N2       0.030700
     18 H4           5.9240    -2.0330    -1.2090 h1         1 8N2       0.030700
     19 H5           6.4110    -1.2460     0.2990 h1         1 8N2       0.030700
     20 H6           3.9510     0.0020    -0.2890 ha         1 8N2       0.165000
     21 H7           1.5170    -0.0000    -2.1650 ha         1 8N2       0.103000
     22 H8           3.6000    -0.0050    -5.8430 ha         1 8N2       0.116000
     23 H9           6.0620    -0.0040    -5.8500 ha         1 8N2       0.119000
     24 H10          9.3030     0.0020    -4.8740 h1         1 8N2       0.032033
     25 H11          7.9330     0.8910    -5.5560 h1         1 8N2       0.032033
     26 H12          7.9290    -0.8780    -5.5590 h1         1 8N2       0.032033
@<TRIPOS>BOND
     1     5    12 1   
     2    15    14 1   
     3    14    13 1   
     4    12     4 1   
     5    13     4 ar  
     6    13    11 ar  
     7     4     3 ar  
     8    11    10 ar  
     9     3     6 1   
    10     3     2 ar  
    11     6     7 2   
    12    10     2 ar  
    13     9     8 1   
    14     7     8 1   
    15     8     1 1   
    16     2    16 1   
    17     5    17 1   
    18     5    18 1   
    19     5    19 1   
    20     6    20 1   
    21     7    21 1   
    22    10    22 1   
    23    11    23 1   
    24    15    24 1   
    25    15    25 1   
    26    15    26 1   
@<TRIPOS>SUBSTRUCTURE
     1 8N2         1 TEMP              0 ****  ****    0 ROOT
