@<TRIPOS>MOLECULE
molecule
   44    44     1     0     0
SMALL
bcc


@<TRIPOS>ATOM
      1 C1           0.0000     0.0000     0.0000 c3         1 8N3      -0.047800
      2 C2           1.5070     0.0000     0.0000 ca         1 8N3      -0.087300
      3 C3           2.1970     0.0000     1.1980 ca         1 8N3      -0.120000
      4 CD1          3.5800    -0.0060     1.1970 ca         1 8N3      -0.128000
      5 CG1          4.2720    -0.0120     0.0000 ca         1 8N3      -0.115000
      6 CB           3.5800    -0.0130    -1.1970 ca         1 8N3      -0.116300
      7 CA           4.3340    -0.0210    -2.5020 c3         1 8N3       0.179300
      8 N            4.5730    -1.4040    -2.9210 ns         1 8N3      -0.597900
      9 C8           5.2350    -1.6560    -4.0660 c          1 8N3       0.791100
     10 O            5.6340    -0.7360    -4.7530 o          1 8N3      -0.659100
     11 N2           5.4550    -2.9290    -4.4520 ns         1 8N3      -0.579900
     12 C9           6.1740    -3.2030    -5.6980 c3         1 8N3       0.073700
     13 C10          5.7720    -4.5810    -6.2260 c3         1 8N3      -0.090400
     14 C11          4.2890    -4.5720    -6.6000 c3         1 8N3      -0.078700
     15 C12          4.0670    -3.6260    -7.7830 c3         1 8N3      -0.091100
     16 C13          3.8520    -5.9860    -6.9900 c3         1 8N3      -0.091100
     17 C14          7.6580    -3.1780    -5.4380 c          1 8N3       0.652100
     18 O2           8.0740    -2.9530    -4.3210 o          1 8N3      -0.560100
     19 N3           8.5230    -3.4050    -6.4460 ns         1 8N3      -0.474400
     20 O3           9.9180    -3.3820    -6.2010 oh         1 8N3      -0.362100
     21 CG2          2.1990    -0.0060    -1.1970 ca         1 8N3      -0.114000
     22 H1          -0.3610     0.7840    -0.6540 hc         1 8N3       0.043700
     23 H2          -0.3610     0.1740     1.0060 hc         1 8N3       0.043700
     24 H3          -0.3610    -0.9590    -0.3520 hc         1 8N3       0.043700
     25 H4           1.6560     0.0050     2.1360 ha         1 8N3       0.131000
     26 H5           4.1220    -0.0050     2.1350 ha         1 8N3       0.132000
     27 H6           5.3550    -0.0160     0.0000 ha         1 8N3       0.139000
     28 H7           3.7510     0.4900    -3.2580 h1         1 8N3       0.059700
     29 H8           5.2830     0.4870    -2.3740 h1         1 8N3       0.059700
     30 H9           4.2420    -2.1620    -2.3570 hn         1 8N3       0.311500
     31 H10          5.1610    -3.6860    -3.8680 hn         1 8N3       0.315500
     32 H11          5.9230    -2.4480    -6.4330 h1         1 8N3       0.100700
     33 H12          5.9460    -5.3260    -5.4590 hc         1 8N3       0.053700
     34 H13          6.3640    -4.8190    -7.1020 hc         1 8N3       0.053700
     35 H14          3.7050    -4.2330    -5.7530 hc         1 8N3       0.057700
     36 H15          4.9010    -3.7060    -8.4700 hc         1 8N3       0.037200
     37 H16          3.1510    -3.8960    -8.2940 hc         1 8N3       0.037200
     38 H17          3.9930    -2.6080    -7.4220 hc         1 8N3       0.037200
     39 H18          2.7860    -5.9930    -7.1870 hc         1 8N3       0.037200
     40 H19          4.3860    -6.2970    -7.8790 hc         1 8N3       0.037200
     41 H20          4.0740    -6.6690    -6.1780 hc         1 8N3       0.037200
     42 H21          8.1810    -3.5630    -7.3730 hn         1 8N3       0.316500
     43 H22         10.3810    -3.3600    -7.0230 ho         1 8N3       0.396000
     44 H23          1.6570    -0.0070    -2.1350 ha         1 8N3       0.134000
@<TRIPOS>BOND
     1    16    14 1   
     2    15    14 1   
     3     4     5 ar  
     4     4     3 ar  
     5     5     6 ar  
     6    14    13 1   
     7     3     2 ar  
     8    13    12 1   
     9     6     7 1   
    10     6    21 ar  
    11     2    21 ar  
    12     2     1 1   
    13    10     9 2   
    14     9    11 1   
    15     9     8 1   
    16    11    12 1   
    17     7     8 1   
    18    12    17 1   
    19    17    18 2   
    20    17    19 1   
    21    19    20 1   
    22     1    22 1   
    23     1    23 1   
    24     1    24 1   
    25     3    25 1   
    26     4    26 1   
    27     5    27 1   
    28     7    28 1   
    29     7    29 1   
    30     8    30 1   
    31    11    31 1   
    32    12    32 1   
    33    13    33 1   
    34    13    34 1   
    35    14    35 1   
    36    15    36 1   
    37    15    37 1   
    38    15    38 1   
    39    16    39 1   
    40    16    40 1   
    41    16    41 1   
    42    19    42 1   
    43    20    43 1   
    44    21    44 1   
@<TRIPOS>SUBSTRUCTURE
     1 8N3         1 TEMP              0 ****  ****    0 ROOT
