@<TRIPOS>MOLECULE
molecule
   62    65     1     0     0
SMALL
bcc


@<TRIPOS>ATOM
      1 C10          0.0000     0.0000     0.0000 c3         1 8N4      -0.078900
      2 C13          1.5300     1.2500     2.1640 c3         1 8N4      -0.075900
      3 C17          2.3310    -6.0310     3.0690 ca         1 8N4      -0.041400
      4 C20          1.4990    -8.4050     4.2440 ca         1 8N4      -0.075600
      5 C21          1.8680    -8.3780     2.8970 ca         1 8N4      -0.114000
      6 C22          2.2810    -7.1990     2.3170 ca         1 8N4      -0.130000
      7 C28          0.3210    -5.5280     6.7640 ca         1 8N4      -0.172000
      8 C01          4.9700    -3.6280    -0.2300 ca         1 8N4      -0.198300
      9 C02          5.4110    -2.4320    -0.7770 ca         1 8N4      -0.105000
     10 C03          4.9520    -1.2460    -0.2280 ca         1 8N4      -0.241300
     11 C04          4.0710    -1.2880     0.8430 ca         1 8N4       0.424600
     12 N05          3.6690    -2.4360     1.3410 nb         1 8N4      -0.691000
     13 C06          4.0860    -3.5950     0.8440 ca         1 8N4       0.385800
     14 C07          3.5700    -0.0000     1.4430 c3         1 8N4      -0.121700
     15 C08          2.0400     0.0000     1.4430 c3         1 8N4      -0.064700
     16 C09          1.5300     0.0000     0.0000 c3         1 8N4      -0.075900
     17 C11         -0.5100     1.2500     0.7210 c3         1 8N4      -0.080400
     18 C12          0.0010     1.2500     2.1640 c3         1 8N4      -0.078900
     19 C14          3.6010    -4.8630     1.4360 c          1 8N4       0.563600
     20 O15          3.9740    -5.9280     0.9820 o          1 8N4      -0.594100
     21 N16          2.7440    -4.8380     2.4760 ns         1 8N4      -0.440100
     22 C18          1.9640    -6.0500     4.4170 ca         1 8N4       0.119600
     23 C19          1.5480    -7.2320     5.0040 ca         1 8N4      -0.159000
     24 C23          1.0570    -9.6670     4.8650 c          1 8N4       0.880200
     25 O24          1.0100   -10.7980     4.1320 o          1 8N4      -0.833800
     26 O25          0.7350    -9.6890     6.0370 o          1 8N4      -0.833800
     27 N26          2.0150    -4.8740     5.1740 nu         1 8N4      -0.690000
     28 C27          1.5020    -4.8550     6.4720 ca         1 8N4       0.212600
     29 C29         -0.1890    -5.5040     8.0480 ca         1 8N4      -0.062000
     30 C30          0.4750    -4.8180     9.0460 ca         1 8N4      -0.240000
     31 C31          1.6580    -4.1500     8.7630 ca         1 8N4       0.133100
     32 C32          2.1710    -4.1660     7.4750 ca         1 8N4      -0.194000
     33 O33          2.3100    -3.4750     9.7460 os         1 8N4      -0.344900
     34 C34          1.7250    -3.5020    11.0480 c3         1 8N4       0.794700
     35 F35          1.6370    -4.8240    11.4950 f          1 8N4      -0.210300
     36 F36          2.5190    -2.7630    11.9320 f          1 8N4      -0.210300
     37 F37          0.4430    -2.9420    10.9950 f          1 8N4      -0.210300
     38 H1          -0.3600    -0.8840     0.5130 hc         1 8N4       0.042700
     39 H2          -0.3600     0.0020    -1.0220 hc         1 8N4       0.042700
     40 H3           1.8900     1.2470     3.1860 hc         1 8N4       0.039450
     41 H4           1.8900     2.1330     1.6510 hc         1 8N4       0.039450
     42 H5           1.8300    -9.2870     2.3080 ha         1 8N4       0.162000
     43 H6           2.5670    -7.1820     1.2720 ha         1 8N4       0.155000
     44 H8           5.3090    -4.5750    -0.6340 ha         1 8N4       0.166000
     45 H9           6.0990    -2.4260    -1.6140 ha         1 8N4       0.137000
     46 H10          5.2770    -0.2950    -0.6320 ha         1 8N4       0.134000
     47 H11          3.9310     0.0890     2.4600 hc         1 8N4       0.053200
     48 H12          3.9310     0.8360     0.8560 hc         1 8N4       0.053200
     49 H13          1.6750    -0.8830     1.9530 hc         1 8N4       0.074700
     50 H14          1.8900     0.8860    -0.5090 hc         1 8N4       0.039450
     51 H15          1.8900    -0.8860    -0.5090 hc         1 8N4       0.039450
     52 H16         -0.1470     2.1330     0.2110 hc         1 8N4       0.036700
     53 H17         -1.5930     1.2470     0.7230 hc         1 8N4       0.036700
     54 H18         -0.3590     0.3640     2.6730 hc         1 8N4       0.042700
     55 H19         -0.3590     2.1360     2.6730 hc         1 8N4       0.042700
     56 H20          2.3750    -3.9660     2.7990 hn         1 8N4       0.325500
     57 H21          1.2630    -7.2490     6.0490 ha         1 8N4       0.167000
     58 H23          2.4290    -4.0490     4.7880 hn         1 8N4       0.433800
     59 H24         -1.1110    -6.0260     8.2720 ha         1 8N4       0.141000
     60 H25          0.0730    -4.8040    10.0510 ha         1 8N4       0.138000
     61 H26          3.0930    -3.6430     7.2520 ha         1 8N4       0.141000
     62 H7          -0.2030    -6.0660     5.9830 ha         1 8N4       0.170000
@<TRIPOS>BOND
     1    17    18 1
     2    17     1 1
     3    18     2 1
     4     1    16 1
     5     2    15 1
     6    37    34 1
     7    16    15 1
     8    15    14 1
     9    34    35 1
    10    34    33 1
    11    34    36 1
    12     9    10 ar
    13     9     8 ar
    14    10    11 ar
    15     8    13 ar
    16    11    14 1
    17    11    12 ar
    18    33    31 1
    19    13    12 ar
    20    13    19 1
    21    20    19 2
    22     6     5 ar
    23     6     3 ar
    24    19    21 1
    25     5     4 ar
    26    21     3 1
    27    26    24 1
    28     3    22 ar
    29    31    32 ar
    30    31    30 ar
    31    32    28 ar
    32     4    24 1
    33     4    23 ar
    34    24    25 1
    35    22    23 ar
    36    22    27 1
    37    30    29 ar
    38    28    27 1
    39    28     7 ar
    40    29     7 ar
    41     1    38 1
    42     1    39 1
    43     2    40 1
    44     2    41 1
    45     5    42 1
    46     6    43 1
    47     7    62 1
    48     8    44 1
    49     9    45 1
    50    10    46 1
    51    14    47 1
    52    14    48 1
    53    15    49 1
    54    16    50 1
    55    16    51 1
    56    17    52 1
    57    17    53 1
    58    18    54 1
    59    18    55 1
    60    21    56 1
    61    23    57 1
    62    27    58 1
    63    29    59 1
    64    30    60 1
    65    32    61 1
@<TRIPOS>SUBSTRUCTURE
     1 8N4         1 TEMP              0 ****  ****    0 ROOT
