@<TRIPOS>MOLECULE
8N4
   62    65     1     0     0
SMALL
bcc


@<TRIPOS>ATOM
      1 C10          0.0000     0.0000     0.0000 c3         1 8N4      -0.023400
      2 C13          1.5300     1.2500     2.1640 c3         1 8N4      -0.024900
      3 C17          2.3310    -6.0310     3.0690 ca         1 8N4      -0.196400
      4 C20          1.4990    -8.4050     4.2440 ca         1 8N4      -0.065600
      5 C21          1.8680    -8.3780     2.8970 ca         1 8N4      -0.083000
      6 C22          2.2810    -7.1990     2.3170 ca         1 8N4      -0.112000
      7 C28          0.3210    -5.5280     6.7640 ca         1 8N4      -0.160000
      8 C01          4.9700    -3.6280    -0.2300 ca         1 8N4      -0.159300
      9 C02          5.4110    -2.4320    -0.7770 ca         1 8N4      -0.083000
     10 C03          4.9520    -1.2460    -0.2280 ca         1 8N4      -0.210300
     11 C04          4.0710    -1.2880     0.8430 ca         1 8N4       0.368600
     12 N05          3.6690    -2.4360     1.3410 nb         1 8N4      -0.569000
     13 C06          4.0860    -3.5950     0.8440 ca         1 8N4       0.327800
     14 C07          3.5700    -0.0000     1.4430 c3         1 8N4      -0.066700
     15 C08          2.0400     0.0000     1.4430 c3         1 8N4      -0.049700
     16 C09          1.5300     0.0000     0.0000 c3         1 8N4      -0.024900
     17 C11         -0.5100     1.2500     0.7210 c3         1 8N4      -0.024400
     18 C12          0.0010     1.2500     2.1640 c3         1 8N4      -0.023400
     19 C14          3.6010    -4.8630     1.4360 c          1 8N4       0.451600
     20 O15          3.9740    -5.9280     0.9820 o          1 8N4      -0.640100
     21 N16          2.7440    -4.8380     2.4760 ns         1 8N4       0.021900
     22 C18          1.9640    -6.0500     4.4170 ca         1 8N4      -0.027400
     23 C19          1.5480    -7.2320     5.0040 ca         1 8N4      -0.148000
     24 C23          1.0570    -9.6670     4.8650 c          1 8N4       0.969200
     25 O24          1.0100   -10.7980     4.1320 o          1 8N4      -0.881300
     26 O25          0.7350    -9.6890     6.0370 o          1 8N4      -0.881300
     27 N26          2.0150    -4.8740     5.1740 nu         1 8N4      -0.240000
     28 C27          1.5020    -4.8550     6.4720 ca         1 8N4       0.069600
     29 C29         -0.1890    -5.5040     8.0480 ca         1 8N4      -0.015000
     30 C30          0.4750    -4.8180     9.0460 ca         1 8N4      -0.243000
     31 C31          1.6580    -4.1500     8.7630 ca         1 8N4       0.150100
     32 C32          2.1710    -4.1660     7.4750 ca         1 8N4      -0.182000
     33 O33          2.3100    -3.4750     9.7460 os         1 8N4      -0.318900
     34 C34          1.7250    -3.5020    11.0480 c3         1 8N4       0.754700
     35 F35          1.6370    -4.8240    11.4950 f          1 8N4      -0.201967
     36 F36          2.5190    -2.7630    11.9320 f          1 8N4      -0.201967
     37 F37          0.4430    -2.9420    10.9950 f          1 8N4      -0.201967
     38 H1          -0.3600    -0.8840     0.5130 hc         1 8N4       0.014700
     39 H2          -0.3600     0.0020    -1.0220 hc         1 8N4       0.014700
     40 H3           1.8900     1.2470     3.1860 hc         1 8N4       0.014200
     41 H4           1.8900     2.1330     1.6510 hc         1 8N4       0.014200
     42 H5           1.8300    -9.2870     2.3080 ha         1 8N4       0.135000
     43 H6           2.5670    -7.1820     1.2720 ha         1 8N4       0.141000
     44 H8           5.3090    -4.5750    -0.6340 ha         1 8N4       0.139000
     45 H9           6.0990    -2.4260    -1.6140 ha         1 8N4       0.107000
     46 H10          5.2770    -0.2950    -0.6320 ha         1 8N4       0.111000
     47 H11          3.9310     0.0890     2.4600 hc         1 8N4       0.022200
     48 H12          3.9310     0.8360     0.8560 hc         1 8N4       0.022200
     49 H13          1.6750    -0.8830     1.9530 hc         1 8N4       0.049700
     50 H14          1.8900     0.8860    -0.5090 hc         1 8N4       0.014200
     51 H15          1.8900    -0.8860    -0.5090 hc         1 8N4       0.014200
     52 H16         -0.1470     2.1330     0.2110 hc         1 8N4       0.009700
     53 H17         -1.5930     1.2470     0.7230 hc         1 8N4       0.009700
     54 H18         -0.3590     0.3640     2.6730 hc         1 8N4       0.014700
     55 H19         -0.3590     2.1360     2.6730 hc         1 8N4       0.014700
     56 H20          2.3750    -3.9660     2.7990 hn         1 8N4       0.165500
     57 H21          1.2630    -7.2490     6.0490 ha         1 8N4       0.154000
     58 H23          2.4290    -4.0490     4.7880 hn         1 8N4       0.272800
     59 H24         -1.1110    -6.0260     8.2720 ha         1 8N4       0.107000
     60 H25          0.0730    -4.8040    10.0510 ha         1 8N4       0.123000
     61 H26          3.0930    -3.6430     7.2520 ha         1 8N4       0.117000
     62 H7          -0.2030    -6.0660     5.9830 ha         1 8N4       0.150000
@<TRIPOS>BOND
     1     1    16 1   
     2     1    17 1   
     3     1    38 1   
     4     1    39 1   
     5     2    15 1   
     6     2    18 1   
     7     2    40 1   
     8     2    41 1   
     9     3     6 ar  
    10     3    21 1   
    11     3    22 ar  
    12     4     5 ar  
    13     4    23 ar  
    14     4    24 1   
    15     5     6 ar  
    16     5    42 1   
    17     6    43 1   
    18     7    28 ar  
    19     7    29 ar  
    20     7    62 1   
    21     8     9 ar  
    22     8    13 ar  
    23     8    44 1   
    24     9    10 ar  
    25     9    45 1   
    26    10    11 ar  
    27    10    46 1   
    28    11    12 ar  
    29    11    14 1   
    30    12    13 ar  
    31    13    19 1   
    32    14    15 1   
    33    14    47 1   
    34    14    48 1   
    35    15    16 1   
    36    15    49 1   
    37    16    50 1   
    38    16    51 1   
    39    17    18 1   
    40    17    52 1   
    41    17    53 1   
    42    18    54 1   
    43    18    55 1   
    44    19    20 2   
    45    19    21 1   
    46    21    56 1   
    47    22    23 ar  
    48    22    27 1   
    49    23    57 1   
    50    24    25 1   
    51    24    26 1   
    52    27    28 1   
    53    27    58 1   
    54    28    32 ar  
    55    29    30 ar  
    56    29    59 1   
    57    30    31 ar  
    58    30    60 1   
    59    31    32 ar  
    60    31    33 1   
    61    32    61 1   
    62    33    34 1   
    63    34    35 1   
    64    34    36 1   
    65    34    37 1   
@<TRIPOS>SUBSTRUCTURE
     1 8N4         1 TEMP              0 ****  ****    0 ROOT
