@<TRIPOS>MOLECULE
8N5
   22    24     1     0     0
SMALL
bcc


@<TRIPOS>ATOM
      1 C4           0.0000     0.0000     0.0000 ca         1 8N5      -0.058300
      2 C5           1.3870     0.0000     0.0000 ca         1 8N5      -0.096000
      3 C6          -0.6970     0.0520    -1.3340 c3         1 8N5       0.140000
      4 N1          -4.3080     0.0370     1.8930 ns         1 8N5      -0.138300
      5 C7          -2.9240    -0.4640     0.2260 cc         1 8N5      -0.179600
      6 C8          -2.1470    -0.0620     1.2850 cd         1 8N5       0.044800
      7 C9          -4.2710    -0.4040     0.6150 c          1 8N5       0.660700
      8 O           -5.2320    -0.6990    -0.0730 o          1 8N5      -0.667500
      9 N           -2.9900     0.2580     2.3220 na         1 8N5      -0.198000
     10 C3          -0.6740    -0.0190     1.2210 ca         1 8N5      -0.029800
     11 C2           0.0500    -0.0100     2.4190 ca         1 8N5      -0.091000
     12 C1           1.4270     0.0010     2.3980 ca         1 8N5      -0.098000
     13 S           -2.2180    -0.9400    -1.3180 ss         1 8N5      -0.273700
     14 C            2.0940     0.0000     1.1850 ca         1 8N5      -0.082000
     15 H1           1.9220    -0.0010    -0.9420 ha         1 8N5       0.111000
     16 H2          -0.9750     1.0820    -1.5220 h1         1 8N5       0.055700
     17 H3          -0.0300    -0.3740    -2.0730 h1         1 8N5       0.055700
     18 H4          -5.1350     0.1810     2.4390 hn         1 8N5       0.214500
     19 H6          -0.4750    -0.0100     3.3670 ha         1 8N5       0.098000
     20 H7           1.9860     0.0010     3.3260 ha         1 8N5       0.107000
     21 H8           3.1780     0.0080     1.1660 ha         1 8N5       0.106000
     22 H5          -2.7130     0.5870     3.2250 hn         1 8N5       0.316800
@<TRIPOS>BOND
     1     1     2 ar  
     2     1     3 1   
     3     1    10 ar  
     4     2    14 ar  
     5     2    15 1   
     6     3    13 1   
     7     3    16 1   
     8     3    17 1   
     9     4     7 1   
    10     4     9 1   
    11     4    18 1   
    12     5     6 2   
    13     5     7 1   
    14     5    13 1   
    15     6     9 1   
    16     6    10 1   
    17     7     8 2   
    18     9    22 1   
    19    10    11 ar  
    20    11    12 ar  
    21    11    19 1   
    22    12    14 ar  
    23    12    20 1   
    24    14    21 1   
@<TRIPOS>SUBSTRUCTURE
     1 8N5         1 TEMP              0 ****  ****    0 ROOT
