@<TRIPOS>MOLECULE
molecule
   22    24     1     0     0
SMALL
bcc


@<TRIPOS>ATOM
      1 C4           0.0000     0.0000     0.0000 ca         1 8N5      -0.046300
      2 C5           1.3870     0.0000     0.0000 ca         1 8N5      -0.124000
      3 C6          -0.6970     0.0520    -1.3340 c3         1 8N5       0.026000
      4 N1          -4.3080     0.0370     1.8930 ns         1 8N5      -0.403300
      5 C7          -2.9240    -0.4640     0.2260 cc         1 8N5      -0.196600
      6 C8          -2.1470    -0.0620     1.2850 cd         1 8N5       0.192800
      7 C9          -4.2710    -0.4040     0.6150 c          1 8N5       0.729700
      8 O           -5.2320    -0.6990    -0.0730 o          1 8N5      -0.632500
      9 N           -2.9900     0.2580     2.3220 na         1 8N5      -0.539000
     10 C3          -0.6740    -0.0190     1.2210 ca         1 8N5      -0.047800
     11 C2           0.0500    -0.0100     2.4190 ca         1 8N5      -0.110000
     12 C1           1.4270     0.0010     2.3980 ca         1 8N5      -0.128000
     13 S           -2.2180    -0.9400    -1.3180 ss         1 8N5      -0.171700
     14 C            2.0940     0.0000     1.1850 ca         1 8N5      -0.109000
     15 H1           1.9220    -0.0010    -0.9420 ha         1 8N5       0.139000
     16 H2          -0.9750     1.0820    -1.5220 h1         1 8N5       0.085200
     17 H3          -0.0300    -0.3740    -2.0730 h1         1 8N5       0.085200
     18 H4          -5.1350     0.1810     2.4390 hn         1 8N5       0.367500
     19 H6          -0.4750    -0.0100     3.3670 ha         1 8N5       0.126000
     20 H7           1.9860     0.0010     3.3260 ha         1 8N5       0.137000
     21 H8           3.1780     0.0080     1.1660 ha         1 8N5       0.136000
     22 H5          -2.7130     0.5870     3.2250 hn         1 8N5       0.483800
@<TRIPOS>BOND
     1    13     3 1   
     2    13     5 1   
     3     3     1 1   
     4     8     7 2   
     5     5     7 1   
     6     5     6 2   
     7     7     4 1   
     8     1     2 ar  
     9     1    10 ar  
    10     2    14 ar  
    11     6    10 1   
    12     6     9 1   
    13     4     9 1   
    14    10    11 ar  
    15    14    12 ar  
    16    11    12 ar  
    17     2    15 1   
    18     3    16 1   
    19     3    17 1   
    20     4    18 1   
    21    11    19 1   
    22    12    20 1   
    23    14    21 1   
    24     9    22 1   
@<TRIPOS>SUBSTRUCTURE
     1 8N5         1 TEMP              0 ****  ****    0 ROOT
