@<TRIPOS>MOLECULE
8N6
   45    47     1     0     0
SMALL
bcc


@<TRIPOS>ATOM
      1 O4           0.0000     0.0000     0.0000 o          1 8N6      -0.606500
      2 C4           1.2130     0.0000     0.0000 c          1 8N6       0.611500
      3 N3           1.9350     0.0000     1.1080 ns         1 8N6      -0.165500
      4 C5           2.0390    -0.0070    -1.2670 c3         1 8N6      -0.024600
      5 S1           3.7530    -0.0040    -0.6410 ss         1 8N6      -0.313700
      6 C2           3.2690    -0.0010     1.0650 c          1 8N6       0.675100
      7 O2           4.0180     0.0010     2.0220 o          1 8N6      -0.567500
      8 C6           1.7640    -1.2700    -2.0870 c3         1 8N6       0.068900
      9 C21          9.4680    -3.3570    -9.3980 ca         1 8N6      -0.063000
     10 C7           2.5050    -1.1910    -3.3960 ca         1 8N6      -0.163300
     11 C12          3.7910    -1.6870    -3.4930 ca         1 8N6      -0.045500
     12 C11          4.4720    -1.6150    -4.6920 ca         1 8N6      -0.176500
     13 C10          3.8650    -1.0450    -5.8010 ca         1 8N6       0.164100
     14 C9           2.5740    -0.5480    -5.7020 ca         1 8N6      -0.176500
     15 C8           1.8940    -0.6260    -4.5010 ca         1 8N6      -0.045500
     16 O13          4.5350    -0.9680    -6.9810 os         1 8N6      -0.308900
     17 C14          5.8610    -1.5010    -7.0090 c3         1 8N6       0.200400
     18 C15          6.4510    -1.3260    -8.4110 c3         1 8N6      -0.071700
     19 C24         11.8730    -4.6210    -7.5220 c3         1 8N6       0.008900
     20 C20         10.3800    -2.8820    -8.4680 ca         1 8N6      -0.209600
     21 C19          9.9770    -1.9220    -7.5600 ca         1 8N6       0.408200
     22 N18          8.7420    -1.4580    -7.5710 nb         1 8N6      -0.576000
     23 C22          8.1790    -2.8460    -9.3790 ca         1 8N6      -0.209300
     24 C17          7.8480    -1.8880    -8.4410 ca         1 8N6       0.366600
     25 H1           1.4720     0.0020     1.9950 hn         1 8N6       0.197500
     26 H2           1.8470     0.8850    -1.8510 h1         1 8N6       0.097700
     27 H3           2.0990    -2.1390    -1.5340 hc         1 8N6       0.036200
     28 H4           0.7010    -1.3510    -2.2780 hc         1 8N6       0.036200
     29 H5           9.7560    -4.1090   -10.1230 ha         1 8N6       0.112000
     30 H6           4.2660    -2.1320    -2.6270 ha         1 8N6       0.111500
     31 H7           5.4800    -2.0050    -4.7670 ha         1 8N6       0.122000
     32 H8           2.0960    -0.1040    -6.5670 ha         1 8N6       0.122000
     33 H9           0.8860    -0.2370    -4.4220 ha         1 8N6       0.111500
     34 H10          5.8320    -2.5550    -6.7590 h1         1 8N6       0.012700
     35 H11          6.4770    -0.9760    -6.2890 h1         1 8N6       0.012700
     36 H12          5.8350    -1.8500    -9.1300 hc         1 8N6       0.030700
     37 H13          6.4800    -0.2720    -8.6600 hc         1 8N6       0.030700
     38 H14         12.9120    -4.8900    -7.3700 hc         1 8N6       0.003700
     39 H15         11.4210    -4.3740    -6.5690 hc         1 8N6       0.003700
     40 H16         11.3460    -5.4550    -7.9680 hc         1 8N6       0.003700
     41 H17         12.0850    -3.6950    -9.4510 hc         1 8N6       0.018200
     42 H18         12.4600    -2.6320    -8.0880 hc         1 8N6       0.018200
     43 H19         10.6840    -1.5450    -6.8300 h4         1 8N6      -0.015900
     44 H20          7.4400    -3.1950   -10.0910 ha         1 8N6       0.117000
     45 C23         11.7930    -3.4050    -8.4490 c3         1 8N6       0.036900
@<TRIPOS>BOND
     1     1     2 2   
     2     2     3 1   
     3     2     4 1   
     4     3     6 1   
     5     3    25 1   
     6     4     5 1   
     7     4     8 1   
     8     4    26 1   
     9     5     6 1   
    10     6     7 2   
    11     8    10 1   
    12     8    27 1   
    13     8    28 1   
    14     9    20 ar  
    15     9    23 ar  
    16     9    29 1   
    17    10    11 ar  
    18    10    15 ar  
    19    11    12 ar  
    20    11    30 1   
    21    12    13 ar  
    22    12    31 1   
    23    13    14 ar  
    24    13    16 1   
    25    14    15 ar  
    26    14    32 1   
    27    15    33 1   
    28    16    17 1   
    29    17    18 1   
    30    17    34 1   
    31    17    35 1   
    32    18    24 1   
    33    18    36 1   
    34    18    37 1   
    35    19    38 1   
    36    19    39 1   
    37    19    40 1   
    38    19    45 1   
    39    20    21 ar  
    40    20    45 1   
    41    21    22 ar  
    42    21    43 1   
    43    22    24 ar  
    44    23    24 ar  
    45    23    44 1   
    46    41    45 1   
    47    42    45 1   
@<TRIPOS>SUBSTRUCTURE
     1 8N6         1 TEMP              0 ****  ****    0 ROOT
