@<TRIPOS>MOLECULE
molecule
   45    47     1     0     0
SMALL
bcc


@<TRIPOS>ATOM
      1 O4           0.0000     0.0000     0.0000 o          1 8N6      -0.575500
      2 C4           1.2130     0.0000     0.0000 c          1 8N6       0.702500
      3 N3           1.9350     0.0000     1.1080 ns         1 8N6      -0.583500
      4 C5           2.0390    -0.0070    -1.2670 c3         1 8N6      -0.066600
      5 S1           3.7530    -0.0040    -0.6410 ss         1 8N6      -0.242700
      6 C2           3.2690    -0.0010     1.0650 c          1 8N6       0.738100
      7 O2           4.0180     0.0010     2.0220 o          1 8N6      -0.544500
      8 C6           1.7640    -1.2700    -2.0870 c3         1 8N6      -0.004100
      9 C21          9.4680    -3.3570    -9.3980 ca         1 8N6      -0.089000
     10 C7           2.5050    -1.1910    -3.3960 ca         1 8N6      -0.146300
     11 C12          3.7910    -1.6870    -3.4930 ca         1 8N6      -0.079000
     12 C11          4.4720    -1.6150    -4.6920 ca         1 8N6      -0.189500
     13 C10          3.8650    -1.0450    -5.8010 ca         1 8N6       0.154100
     14 C9           2.5740    -0.5480    -5.7020 ca         1 8N6      -0.189500
     15 C8           1.8940    -0.6260    -4.5010 ca         1 8N6      -0.079000
     16 O13          4.5350    -0.9680    -6.9810 os         1 8N6      -0.333900
     17 C14          5.8610    -1.5010    -7.0090 c3         1 8N6       0.140400
     18 C15          6.4510    -1.3260    -8.4110 c3         1 8N6      -0.122700
     19 C24         11.8730    -4.6210    -7.5220 c3         1 8N6      -0.088100
     20 C20         10.3800    -2.8820    -8.4680 ca         1 8N6      -0.205600
     21 C19          9.9770    -1.9220    -7.5600 ca         1 8N6       0.425200
     22 N18          8.7420    -1.4580    -7.5710 nb         1 8N6      -0.691000
     23 C22          8.1790    -2.8460    -9.3790 ca         1 8N6      -0.240300
     24 C17          7.8480    -1.8880    -8.4410 ca         1 8N6       0.415600
     25 H1           1.4720     0.0020     1.9950 hn         1 8N6       0.349500
     26 H2           1.8470     0.8850    -1.8510 h1         1 8N6       0.124700
     27 H3           2.0990    -2.1390    -1.5340 hc         1 8N6       0.069700
     28 H4           0.7010    -1.3510    -2.2780 hc         1 8N6       0.069700
     29 H5           9.7560    -4.1090   -10.1230 ha         1 8N6       0.140000
     30 H6           4.2660    -2.1320    -2.6270 ha         1 8N6       0.138500
     31 H7           5.4800    -2.0050    -4.7670 ha         1 8N6       0.144500
     32 H8           2.0960    -0.1040    -6.5670 ha         1 8N6       0.144500
     33 H9           0.8860    -0.2370    -4.4220 ha         1 8N6       0.138500
     34 H10          5.8320    -2.5550    -6.7590 h1         1 8N6       0.048200
     35 H11          6.4770    -0.9760    -6.2890 h1         1 8N6       0.048200
     36 H12          5.8350    -1.8500    -9.1300 hc         1 8N6       0.067700
     37 H13          6.4800    -0.2720    -8.6600 hc         1 8N6       0.067700
     38 H14         12.9120    -4.8900    -7.3700 hc         1 8N6       0.038033
     39 H15         11.4210    -4.3740    -6.5690 hc         1 8N6       0.038033
     40 H16         11.3460    -5.4550    -7.9680 hc         1 8N6       0.038033
     41 H17         12.0850    -3.6950    -9.4510 hc         1 8N6       0.050200
     42 H18         12.4600    -2.6320    -8.0880 hc         1 8N6       0.050200
     43 H19         10.6840    -1.5450    -6.8300 h4         1 8N6       0.026100
     44 H20          7.4400    -3.1950   -10.0910 ha         1 8N6       0.141000
     45 C23         11.7930    -3.4050    -8.4490 c3         1 8N6      -0.036100
@<TRIPOS>BOND
     1    19    45 1   
     2    45    20 1   
     3    20    21 ar  
     4    20     9 ar  
     5    21    22 ar  
     6     9    23 ar  
     7    22    24 ar  
     8    23    24 ar  
     9    24    18 1   
    10    18    17 1   
    11    17    16 1   
    12    16    13 1   
    13    13    14 ar  
    14    13    12 ar  
    15    14    15 ar  
    16    12    11 ar  
    17    15    10 ar  
    18     5     6 1   
    19     5     4 1   
    20    11    10 ar  
    21    10     8 1   
    22     7     6 2   
    23     6     3 1   
    24     4     8 1   
    25     4     2 1   
    26     3     2 1   
    27     2     1 2   
    28     3    25 1   
    29     4    26 1   
    30     8    27 1   
    31     8    28 1   
    32     9    29 1   
    33    11    30 1   
    34    12    31 1   
    35    14    32 1   
    36    15    33 1   
    37    17    34 1   
    38    17    35 1   
    39    18    36 1   
    40    18    37 1   
    41    19    38 1   
    42    19    39 1   
    43    19    40 1   
    44    45    41 1   
    45    45    42 1   
    46    21    43 1   
    47    23    44 1   
@<TRIPOS>SUBSTRUCTURE
     1 8N6         1 TEMP              0 ****  ****    0 ROOT
