@<TRIPOS>MOLECULE
8N7
   64    68     1     0     0
SMALL
bcc


@<TRIPOS>ATOM
      1 C10          0.0000     0.0000     0.0000 c3         1 8N7      -0.069700
      2 C13         -1.9040    -2.4320     2.2990 c3         1 8N7      -0.022400
      3 C15          0.4290    -2.1670     3.1540 c3         1 8N7      -0.022400
      4 C17          5.4550     0.0940     3.2900 ca         1 8N7      -0.107400
      5 C20          3.8230     1.9740     5.9860 c3         1 8N7       0.167100
      6 C21          2.7380     3.0500     5.8820 c3         1 8N7      -0.087900
      7 C22          2.4790     3.6400     7.2710 c3         1 8N7       0.219900
      8 C24          3.0930     1.5840     8.3410 c3         1 8N7       0.219900
      9 C26          6.2260     0.8700     5.4310 ca         1 8N7      -0.154000
     10 C28          7.6850    -0.4240     4.0050 ca         1 8N7      -0.120000
     11 N01          4.4430     0.0060     2.3290 ns         1 8N7      -0.005100
     12 O03          5.9210     0.0020     0.6720 o          1 8N7      -0.647100
     13 C04          3.6810     0.0000     0.0000 ca         1 8N7       0.304800
     14 N05          2.4100     0.0000     0.3840 nb         1 8N7      -0.555000
     15 C06          1.4270    -0.0020    -0.4880 ca         1 8N7       0.370600
     16 C07          1.6810    -0.0040    -1.8500 ca         1 8N7      -0.190300
     17 C08          2.9940    -0.0050    -2.2950 ca         1 8N7      -0.078000
     18 C09          4.0120     0.0020    -1.3540 ca         1 8N7      -0.152300
     19 C11         -0.2140    -1.1800     0.9500 c3         1 8N7      -0.040700
     20 C12         -1.6900    -1.2530     1.3490 c3         1 8N7      -0.042900
     21 C14         -1.0460    -2.2400     3.5520 c3         1 8N7      -0.025400
     22 C16          0.6440    -0.9880     2.2030 c3         1 8N7      -0.042900
     23 C18          5.2250     0.7830     4.4810 ca         1 8N7       0.127100
     24 O19          4.0190     1.3680     4.7080 os         1 8N7      -0.300900
     25 O23          2.0980     2.5950     8.1680 os         1 8N7      -0.407600
     26 C25          3.3760     0.9110     6.9960 c3         1 8N7      -0.087900
     27 C27          7.4630     0.2690     5.1960 ca         1 8N7      -0.114500
     28 C29          6.6840    -0.5090     3.0590 ca         1 8N7      -0.071000
     29 C30          8.5360     0.3590     6.2100 cc         1 8N7       0.310000
     30 N31          9.7780    -0.1780     6.1200 na         1 8N7       0.292600
     31 N32         10.4210     0.1770     7.3190 nc         1 8N7      -0.399800
     32 N33          9.5740     0.8620     8.0080 nd         1 8N7       0.034000
     33 N34          8.4670     0.9810     7.3680 nd         1 8N7      -0.400000
     34 H102        -0.6710    -0.0910    -0.8450 hc         1 8N7       0.026700
     35 H101        -0.2010     0.9270     0.5240 hc         1 8N7       0.026700
     36 H132        -2.9480    -2.4810     2.5820 hc         1 8N7       0.012200
     37 H131        -1.6150    -3.3510     1.8030 hc         1 8N7       0.012200
     38 H152         1.0350    -2.0290     4.0410 hc         1 8N7       0.012200
     39 H151         0.7130    -3.0870     2.6560 hc         1 8N7       0.012200
     40 H201         4.7470     2.4260     6.3250 h1         1 8N7       0.033700
     41 H212         3.0710     3.8350     5.2130 hc         1 8N7       0.034200
     42 H211         1.8250     2.6070     5.5020 hc         1 8N7       0.034200
     43 H221         3.3830     4.1140     7.6340 h1         1 8N7       0.011450
     44 H222         1.6810     4.3700     7.2090 h1         1 8N7       0.011450
     45 H242         2.7340     0.8430     9.0460 h1         1 8N7       0.011450
     46 H241         4.0030     2.0350     8.7160 h1         1 8N7       0.011450
     47 H261         6.0500     1.4060     6.3560 ha         1 8N7       0.152000
     48 H281         8.6440    -0.8930     3.8220 ha         1 8N7       0.098000
     49 H011         3.4890    -0.0980     2.6150 hn         1 8N7       0.198500
     50 H071         0.8630    -0.0100    -2.5600 ha         1 8N7       0.118000
     51 H081         3.2200    -0.0050    -3.3550 ha         1 8N7       0.114000
     52 H091         5.0490     0.0020    -1.6660 ha         1 8N7       0.137000
     53 H111         0.0710    -2.1020     0.4580 hc         1 8N7       0.029700
     54 H121        -1.9740    -0.3340     1.8470 hc         1 8N7       0.024950
     55 H122        -2.2960    -1.3910     0.4620 hc         1 8N7       0.024950
     56 H141        -1.1970    -3.0780     4.2220 hc         1 8N7       0.013200
     57 H142        -1.3310    -1.3200     4.0460 hc         1 8N7       0.013200
     58 H162         1.6880    -0.9390     1.9200 hc         1 8N7       0.024950
     59 H161         0.3550    -0.0690     2.6990 hc         1 8N7       0.024950
     60 H252         2.4750     0.4280     6.6370 hc         1 8N7       0.034200
     61 H251         4.1620     0.1760     7.1190 hc         1 8N7       0.034200
     62 H291         6.8580    -1.0470     2.1350 ha         1 8N7       0.153000
     63 H1          10.1560    -0.7120     5.3630 hn         1 8N7       0.175700
     64 C02          4.7570     0.0020     1.0180 c          1 8N7       0.478600
@<TRIPOS>BOND
     1     1    15 1   
     2     1    19 1   
     3     1    34 1   
     4     1    35 1   
     5     2    20 1   
     6     2    21 1   
     7     2    36 1   
     8     2    37 1   
     9     3    21 1   
    10     3    22 1   
    11     3    38 1   
    12     3    39 1   
    13     4    11 1   
    14     4    23 ar  
    15     4    28 ar  
    16     5     6 1   
    17     5    24 1   
    18     5    26 1   
    19     5    40 1   
    20     6     7 1   
    21     6    41 1   
    22     6    42 1   
    23     7    25 1   
    24     7    43 1   
    25     7    44 1   
    26     8    25 1   
    27     8    26 1   
    28     8    45 1   
    29     8    46 1   
    30     9    23 ar  
    31     9    27 ar  
    32     9    47 1   
    33    10    27 ar  
    34    10    28 ar  
    35    10    48 1   
    36    11    49 1   
    37    11    64 1   
    38    12    64 2   
    39    13    14 ar  
    40    13    18 ar  
    41    13    64 1   
    42    14    15 ar  
    43    15    16 ar  
    44    16    17 ar  
    45    16    50 1   
    46    17    18 ar  
    47    17    51 1   
    48    18    52 1   
    49    19    20 1   
    50    19    22 1   
    51    19    53 1   
    52    20    54 1   
    53    20    55 1   
    54    21    56 1   
    55    21    57 1   
    56    22    58 1   
    57    22    59 1   
    58    23    24 1   
    59    26    60 1   
    60    26    61 1   
    61    27    29 1   
    62    28    62 1   
    63    29    30 1   
    64    29    33 2   
    65    30    31 1   
    66    30    63 1   
    67    31    32 2   
    68    32    33 1   
@<TRIPOS>SUBSTRUCTURE
     1 8N7         1 TEMP              0 ****  ****    0 ROOT
