@<TRIPOS>MOLECULE
molecule
   64    68     1     0     0
SMALL
bcc


@<TRIPOS>ATOM
      1 C10          0.0000     0.0000     0.0000 c3         1 8N7      -0.124700
      2 C13         -1.9040    -2.4320     2.2990 c3         1 8N7      -0.079400
      3 C15          0.4290    -2.1670     3.1540 c3         1 8N7      -0.079400
      4 C17          5.4550     0.0940     3.2900 ca         1 8N7       0.051600
      5 C20          3.8230     1.9740     5.9860 c3         1 8N7       0.139100
      6 C21          2.7380     3.0500     5.8820 c3         1 8N7      -0.130900
      7 C22          2.4790     3.6400     7.2710 c3         1 8N7       0.139900
      8 C24          3.0930     1.5840     8.3410 c3         1 8N7       0.139900
      9 C26          6.2260     0.8700     5.4310 ca         1 8N7      -0.161000
     10 C28          7.6850    -0.4240     4.0050 ca         1 8N7      -0.135000
     11 N01          4.4430     0.0060     2.3290 ns         1 8N7      -0.450100
     12 O03          5.9210     0.0020     0.6720 o          1 8N7      -0.601100
     13 C04          3.6810     0.0000     0.0000 ca         1 8N7       0.367800
     14 N05          2.4100     0.0000     0.3840 nb         1 8N7      -0.684000
     15 C06          1.4270    -0.0020    -0.4880 ca         1 8N7       0.428600
     16 C07          1.6810    -0.0040    -1.8500 ca         1 8N7      -0.225300
     17 C08          2.9940    -0.0050    -2.2950 ca         1 8N7      -0.101000
     18 C09          4.0120     0.0020    -1.3540 ca         1 8N7      -0.192300
     19 C11         -0.2140    -1.1800     0.9500 c3         1 8N7      -0.061700
     20 C12         -1.6900    -1.2530     1.3490 c3         1 8N7      -0.081400
     21 C14         -1.0460    -2.2400     3.5520 c3         1 8N7      -0.080400
     22 C16          0.6440    -0.9880     2.2030 c3         1 8N7      -0.081400
     23 C18          5.2250     0.7830     4.4810 ca         1 8N7       0.114100
     24 O19          4.0190     1.3680     4.7080 os         1 8N7      -0.323900
     25 O23          2.0980     2.5950     8.1680 os         1 8N7      -0.419600
     26 C25          3.3760     0.9110     6.9960 c3         1 8N7      -0.130900
     27 C27          7.4630     0.2690     5.1960 ca         1 8N7      -0.125500
     28 C29          6.6840    -0.5090     3.0590 ca         1 8N7      -0.100000
     29 C30          8.5360     0.3590     6.2100 cc         1 8N7       0.481000
     30 N31          9.7780    -0.1780     6.1200 na         1 8N7      -0.188400
     31 N32         10.4210     0.1770     7.3190 nc         1 8N7      -0.212800
     32 N33          9.5740     0.8620     8.0080 nd         1 8N7      -0.005000
     33 N34          8.4670     0.9810     7.3680 nd         1 8N7      -0.421000
     34 H102        -0.6710    -0.0910    -0.8450 hc         1 8N7       0.058200
     35 H101        -0.2010     0.9270     0.5240 hc         1 8N7       0.058200
     36 H132        -2.9480    -2.4810     2.5820 hc         1 8N7       0.039950
     37 H131        -1.6150    -3.3510     1.8030 hc         1 8N7       0.039950
     38 H152         1.0350    -2.0290     4.0410 hc         1 8N7       0.039950
     39 H151         0.7130    -3.0870     2.6560 hc         1 8N7       0.039950
     40 H201         4.7470     2.4260     6.3250 h1         1 8N7       0.056700
     41 H212         3.0710     3.8350     5.2130 hc         1 8N7       0.063950
     42 H211         1.8250     2.6070     5.5020 hc         1 8N7       0.063950
     43 H221         3.3830     4.1140     7.6340 h1         1 8N7       0.052950
     44 H222         1.6810     4.3700     7.2090 h1         1 8N7       0.052950
     45 H242         2.7340     0.8430     9.0460 h1         1 8N7       0.052950
     46 H241         4.0030     2.0350     8.7160 h1         1 8N7       0.052950
     47 H261         6.0500     1.4060     6.3560 ha         1 8N7       0.168000
     48 H281         8.6440    -0.8930     3.8220 ha         1 8N7       0.127000
     49 H011         3.4890    -0.0980     2.6150 hn         1 8N7       0.356500
     50 H071         0.8630    -0.0100    -2.5600 ha         1 8N7       0.144000
     51 H081         3.2200    -0.0050    -3.3550 ha         1 8N7       0.146000
     52 H091         5.0490     0.0020    -1.6660 ha         1 8N7       0.164000
     53 H111         0.0710    -2.1020     0.4580 hc         1 8N7       0.052700
     54 H121        -1.9740    -0.3340     1.8470 hc         1 8N7       0.048700
     55 H122        -2.2960    -1.3910     0.4620 hc         1 8N7       0.048700
     56 H141        -1.1970    -3.0780     4.2220 hc         1 8N7       0.040700
     57 H142        -1.3310    -1.3200     4.0460 hc         1 8N7       0.040700
     58 H162         1.6880    -0.9390     1.9200 hc         1 8N7       0.048700
     59 H161         0.3550    -0.0690     2.6990 hc         1 8N7       0.048700
     60 H252         2.4750     0.4280     6.6370 hc         1 8N7       0.063950
     61 H251         4.1620     0.1760     7.1190 hc         1 8N7       0.063950
     62 H291         6.8580    -1.0470     2.1350 ha         1 8N7       0.178000
     63 H1          10.1560    -0.7120     5.3630 hn         1 8N7       0.339700
     64 C02          4.7570     0.0020     1.0180 c          1 8N7       0.580600
@<TRIPOS>BOND
     1    31    32 2
     2    31    30 1
     3    32    33 1
     4    30    29 1
     5    33    29 2
     6    29    27 1
     7    27    10 ar
     8    27     9 ar
     9    10    28 ar
    10     9    23 ar
    11    28     4 ar
    12    23     4 ar
    13    23    24 1
    14    26     8 1
    15    26     5 1
    16     4    11 1
    17     8    25 1
    18    24     5 1
    19     5     6 1
    20    25     7 1
    21    11    64 1
    22    12    64 2
    23     6     7 1
    24    64    13 1
    25    13    14 ar
    26    13    18 ar
    27    21     3 1
    28    21     2 1
    29    14    15 ar
    30     3    22 1
    31    18    17 ar
    32     2    20 1
    33    22    19 1
    34    19    20 1
    35    19     1 1
    36    15     1 1
    37    15    16 ar
    38    17    16 ar
    39     1    34 1
    40     1    35 1
    41     2    36 1
    42     2    37 1
    43     3    38 1
    44     3    39 1
    45     5    40 1
    46     6    41 1
    47     6    42 1
    48     7    43 1
    49     7    44 1
    50     8    45 1
    51     8    46 1
    52     9    47 1
    53    10    48 1
    54    11    49 1
    55    16    50 1
    56    17    51 1
    57    18    52 1
    58    19    53 1
    59    20    54 1
    60    20    55 1
    61    21    56 1
    62    21    57 1
    63    22    58 1
    64    22    59 1
    65    26    60 1
    66    26    61 1
    67    28    62 1
    68    30    63 1
@<TRIPOS>SUBSTRUCTURE
     1 8N7         1 TEMP              0 ****  ****    0 ROOT
