@<TRIPOS>MOLECULE
molecule
   11    11     1     0     0
SMALL
bcc


@<TRIPOS>ATOM
      1 C4           0.0000     0.0000     0.0000 c          1 8N8       0.892200
      2 Br1          5.3810    -0.0000     0.2400 br         1 8N8      -0.124100
      3 C1           3.5940     0.0000     0.8560 cc         1 8N8      -0.015900
      4 C2           2.5170     0.0000     0.0000 cc         1 8N8      -0.053900
      5 Br           2.6870    -0.0020    -1.8840 br         1 8N8      -0.060100
      6 C3           1.3110    -0.0000     0.6480 cd         1 8N8       0.019300
      7 O1          -1.1220     0.0060     0.7490 o          1 8N8      -0.808300
      8 O           -0.0790     0.0000    -1.2140 o          1 8N8      -0.808300
      9 S            1.5920     0.0010     2.3840 ss         1 8N8      -0.042800
     10 C            3.2830    -0.0040     2.1590 cd         1 8N8      -0.158100
     11 H2           4.0090    -0.0060     2.9630 h4         1 8N8       0.159000
@<TRIPOS>BOND
     1     2     3 1
     2    10     3 2
     3    10     9 1
     4     3     4 1
     5     9     6 1
     6     4     6 2
     7     4     5 1
     8     6     1 1
     9     1     8 1
    10     1     7 1
    11    10    11 1
@<TRIPOS>SUBSTRUCTURE
     1 8N8         1 TEMP              0 ****  ****    0 ROOT
