@<TRIPOS>MOLECULE
molecule
   49    50     1     0     0
SMALL
bcc


@<TRIPOS>ATOM
      1 C4'          0.0000     0.0000     0.0000 ca         1 8N9       0.733200
      2 C5'          1.3970     0.0000     0.0000 ca         1 8N9      -0.438900
      3 C6'          2.0520     0.0000     1.2160 ca         1 8N9       0.454200
      4 N1'          1.3400     0.0000     2.3350 nb         1 8N9      -0.769000
      5 N3'         -0.6430     0.0010     1.1640 nb         1 8N9      -0.811000
      6 C2'          0.0230     0.0010     2.3000 ca         1 8N9       0.635300
      7 C9          -0.2210     1.0290    -4.9610 c3         1 8N9       0.196600
      8 CM2         -0.7430     0.0010     3.5990 c3         1 8N9      -0.105400
      9 C7'          2.1690    -0.0010    -1.2930 c3         1 8N9       0.289100
     10 C7           4.4280     5.1470    -2.3500 c3         1 8N9       0.235400
     11 C5           2.5310     3.5870    -2.0180 cc         1 8N9      -0.033600
     12 C4           2.6640     2.4230    -1.4020 cd         1 8N9       0.053800
     13 C2           1.3280     1.5000    -3.1050 cc         1 8N9       0.275600
     14 N4'         -0.7030     0.0070    -1.1930 nv         1 8N9      -1.039500
     15 N3           2.0570     1.3140    -1.9300 na         1 8N9      -0.528200
     16 O9           0.3070     0.5090    -6.1820 oh         1 8N9      -0.616800
     17 O8           0.7440    -0.7310    -3.4910 oh         1 8N9      -0.524100
     18 OB1          8.8380     9.1980    -2.9270 o          1 8N9      -0.877167
     19 OB2          6.7940    10.4730    -3.6830 o          1 8N9      -0.877167
     20 OA3          6.6110     8.4680    -1.9920 os         1 8N9      -0.715800
     21 OA2          7.5770     6.0250    -2.0780 o          1 8N9      -0.860500
     22 OB3          7.7380    10.7220    -1.2420 o          1 8N9      -0.877167
     23 O7           4.9780     6.4070    -1.9600 os         1 8N9      -0.602200
     24 OA1          6.3040     7.0040    -4.0240 o          1 8N9      -0.860500
     25 PB           7.5240     9.7040    -2.4720 p5         1 8N9       1.317900
     26 PA1          6.3670     6.9770    -2.5460 p5         1 8N9       1.433800
     27 S1           1.5110     3.2390    -3.4310 ss         1 8N9      -0.209200
     28 H1           3.1340    -0.0000     1.2560 h4         1 8N9       0.019100
     29 H2          -0.2530     2.1100    -5.0130 h1         1 8N9       0.024700
     30 H3          -1.2230     0.6450    -4.8080 h1         1 8N9       0.024700
     31 H5          -1.6450    -0.5880     3.4860 hc         1 8N9       0.038367
     32 H6          -1.0060     1.0180     3.8630 hc         1 8N9       0.038367
     33 H7          -0.1280    -0.4280     4.3810 hc         1 8N9       0.038367
     34 H8           3.2110    -0.2170    -1.0920 h1         1 8N9       0.066200
     35 H9           1.7650    -0.7580    -1.9550 h1         1 8N9       0.066200
     36 H10          5.1260     4.3560    -2.1020 h1         1 8N9       0.024200
     37 H11          4.2460     5.1470    -3.4180 h1         1 8N9       0.024200
     38 H12          2.4130     5.7060    -1.8550 hc         1 8N9       0.057200
     39 H13          3.2920     4.9150    -0.5400 hc         1 8N9       0.057200
     40 H15          4.2370     3.0870    -0.1300 hc         1 8N9       0.054700
     41 H16          3.9410     1.3440    -0.0840 hc         1 8N9       0.054700
     42 H17          2.8220     2.4530     0.7210 hc         1 8N9       0.054700
     43 H20         -0.4870    -0.6630    -1.9050 hn         1 8N9       0.439800
     44 H21         -1.4750     0.6320    -1.3140 hn         1 8N9       0.439800
     45 H23         -0.3020     0.6730    -6.8830 ho         1 8N9       0.386000
     46 H24          0.8450    -1.2390    -4.2790 ho         1 8N9       0.402000
     47 C6           3.1110     4.9150    -1.6080 c3         1 8N9      -0.013200
     48 CM4          3.4730     2.3190    -0.1350 c3         1 8N9      -0.037900
     49 C8           0.6490     0.5920    -3.8110 c2         1 8N9      -0.139100
@<TRIPOS>BOND
     1    48    12 1
     2    12    11 2
     3    12    15 1
     4    47    11 1
     5    47    10 1
     6     9    15 1
     7     9     2 1
     8     3     2 ar
     9     3     4 ar
    10    11    27 1
    11    15    13 1
    12    18    25 1
    13    23    10 1
    14    23    26 1
    15     2     1 ar
    16     4     6 ar
    17    21    26 1
    18    17    49 1
    19    13    27 1
    20    13    49 2
    21    26    20 1
    22    26    24 1
    23    49     7 1
    24    25    20 1
    25    25    22 1
    26    25    19 1
    27     6     8 1
    28     6     5 ar
    29     1     5 ar
    30     1    14 1
    31     7    16 1
    32     3    28 1
    33     7    29 1
    34     7    30 1
    35     8    31 1
    36     8    32 1
    37     8    33 1
    38     9    34 1
    39     9    35 1
    40    10    36 1
    41    10    37 1
    42    47    38 1
    43    47    39 1
    44    48    40 1
    45    48    41 1
    46    48    42 1
    47    14    43 1
    48    14    44 1
    49    16    45 1
    50    17    46 1
@<TRIPOS>SUBSTRUCTURE
     1 8N9         1 TEMP              0 ****  ****    0 ROOT
