@<TRIPOS>MOLECULE
molecule
   23    23     1     0     0
SMALL
bcc


@<TRIPOS>ATOM
      1 C4           0.0000     0.0000     0.0000 ca         1 8NB      -0.087000
      2 C5           1.3810     0.0000     0.0000 ca         1 8NB       0.012400
      3 C6           2.0760     0.0000     1.2020 ca         1 8NB       0.133100
      4 C7           4.0860    -0.0000     2.4730 c3         1 8NB       0.127700
      5 C8          -2.7720    -0.6610     0.2530 c          1 8NB       0.657100
      6 C9          -4.2750    -0.7430     0.3140 c3         1 8NB      -0.170100
      7 C3          -0.6930     0.0040     1.2040 ca         1 8NB       0.023600
      8 C1           1.3840    -0.0020     2.4030 ca         1 8NB      -0.199000
      9 C2           0.0030     0.0050     2.4050 ca         1 8NB      -0.122000
     10 O1           3.4360     0.0010     1.2010 os         1 8NB      -0.314900
     11 Cl1          2.2480     0.0020    -1.5050 cl         1 8NB      -0.087400
     12 O2          -2.1710    -1.1980    -0.6530 o          1 8NB      -0.592100
     13 H1          -0.5420     0.0000    -0.9380 ha         1 8NB       0.183000
     14 H2           5.1600    -0.0000     2.3300 h1         1 8NB       0.042033
     15 H3           3.7960     0.8840     3.0280 h1         1 8NB       0.042033
     16 H4           3.7960    -0.8850     3.0260 h1         1 8NB       0.042033
     17 H5          -4.6550    -1.1260    -0.6260 hc         1 8NB       0.063700
     18 H6          -4.5680    -1.4060     1.1190 hc         1 8NB       0.063700
     19 H7          -4.6840     0.2440     0.4930 hc         1 8NB       0.063700
     20 H8          -2.5920     0.5310     1.9010 hn         1 8NB       0.324500
     21 H9           1.9260    -0.0020     3.3410 ha         1 8NB       0.142000
     22 H10         -0.5380     0.0060     3.3440 ha         1 8NB       0.133000
     23 N1          -2.0940     0.0100     1.2060 ns         1 8NB      -0.480100
@<TRIPOS>BOND
     1     4    10 1   
     2    10     3 1   
     3     8     3 ar  
     4     8     9 ar  
     5     3     2 ar  
     6     9     7 ar  
     7     2    11 1   
     8     2     1 ar  
     9     7     1 ar  
    10     7    23 1   
    11    12     5 2   
    12    23     5 1   
    13     5     6 1   
    14     1    13 1   
    15     4    14 1   
    16     4    15 1   
    17     4    16 1   
    18     6    17 1   
    19     6    18 1   
    20     6    19 1   
    21    23    20 1   
    22     8    21 1   
    23     9    22 1   
@<TRIPOS>SUBSTRUCTURE
     1 8NB         1 TEMP              0 ****  ****    0 ROOT
