@<TRIPOS>MOLECULE
8NB
   23    23     1     0     0
SMALL
bcc


@<TRIPOS>ATOM
      1 C4           0.0000     0.0000     0.0000 ca         1 8NB      -0.065000
      2 C5           1.3810     0.0000     0.0000 ca         1 8NB      -0.059600
      3 C6           2.0760     0.0000     1.2020 ca         1 8NB       0.144100
      4 C7           4.0860    -0.0000     2.4730 c3         1 8NB       0.244700
      5 C8          -2.7720    -0.6610     0.2530 c          1 8NB       0.558100
      6 C9          -4.2750    -0.7430     0.3140 c3         1 8NB      -0.068100
      7 C3          -0.6930     0.0040     1.2040 ca         1 8NB      -0.123400
      8 C1           1.3840    -0.0020     2.4030 ca         1 8NB      -0.188000
      9 C2           0.0030     0.0050     2.4050 ca         1 8NB      -0.087000
     10 O1           3.4360     0.0010     1.2010 os         1 8NB      -0.297900
     11 Cl1          2.2480     0.0020    -1.5050 cl         1 8NB      -0.003400
     12 O2          -2.1710    -1.1980    -0.6530 o          1 8NB      -0.633100
     13 H1          -0.5420     0.0000    -0.9380 ha         1 8NB       0.158000
     14 H2           5.1600    -0.0000     2.3300 h1         1 8NB      -0.001967
     15 H3           3.7960     0.8840     3.0280 h1         1 8NB      -0.001967
     16 H4           3.7960    -0.8850     3.0260 h1         1 8NB      -0.001967
     17 H5          -4.6550    -1.1260    -0.6260 hc         1 8NB       0.024033
     18 H6          -4.5680    -1.4060     1.1190 hc         1 8NB       0.024033
     19 H7          -4.6840     0.2440     0.4930 hc         1 8NB       0.024033
     20 H8          -2.5920     0.5310     1.9010 hn         1 8NB       0.166500
     21 H9           1.9260    -0.0020     3.3410 ha         1 8NB       0.123000
     22 H10         -0.5380     0.0060     3.3440 ha         1 8NB       0.104000
     23 N1          -2.0940     0.0100     1.2060 ns         1 8NB      -0.037100
@<TRIPOS>BOND
     1     1     2 ar  
     2     1     7 ar  
     3     1    13 1   
     4     2     3 ar  
     5     2    11 1   
     6     3     8 ar  
     7     3    10 1   
     8     4    10 1   
     9     4    14 1   
    10     4    15 1   
    11     4    16 1   
    12     5     6 1   
    13     5    12 2   
    14     5    23 1   
    15     6    17 1   
    16     6    18 1   
    17     6    19 1   
    18     7     9 ar  
    19     7    23 1   
    20     8     9 ar  
    21     8    21 1   
    22     9    22 1   
    23    20    23 1   
@<TRIPOS>SUBSTRUCTURE
     1 8NB         1 TEMP              0 ****  ****    0 ROOT
