@<TRIPOS>MOLECULE
8NC
   62    65     1     0     0
SMALL
bcc


@<TRIPOS>ATOM
      1 S1           0.0000     0.0000     0.0000 s6         1 8NC       0.984900
      2 C2           3.7380     0.0000     1.5340 c3         1 8NC      -0.127700
      3 C3           3.9720     0.0000     0.0000 c3         1 8NC      -0.133700
      4 N4           1.6090    -0.1230     0.3760 n3         1 8NC      -0.568500
      5 C5           4.5280     1.1010     2.1940 c          1 8NC       0.583100
      6 N6           7.7170     5.0420     6.0240 n          1 8NC       0.243800
      7 C7           5.1680    -0.8410    -0.3640 c          1 8NC       0.580100
      8 C8           2.2220     0.2700     1.6530 c3         1 8NC       0.257800
      9 C9           2.6610    -0.6450    -0.5150 c3         1 8NC       0.261800
     10 C10          8.7460     4.6300     6.7910 c          1 8NC       0.576700
     11 C11          6.8980     4.0930     5.3970 ca         1 8NC      -0.130400
     12 N12          4.4610     1.2700     3.5290 ns         1 8NC      -0.011100
     13 C13          5.7330     3.6630     6.0200 ca         1 8NC      -0.083000
     14 N14          5.5350    -0.9670    -1.6540 ns         1 8NC      -0.017100
     15 C15          5.2800     2.2180     4.1570 ca         1 8NC      -0.094400
     16 C16          4.9260     2.7280     5.4020 ca         1 8NC       0.067900
     17 C17          7.5570    -3.3980    -3.5360 ca         1 8NC       0.088900
     18 C18          6.5240    -2.5460    -3.1930 ca         1 8NC      -0.131000
     19 O19         -0.2080    -1.0040    -0.9830 o          1 8NC      -0.576300
     20 O20         -0.6590    -0.0590     1.2580 o          1 8NC      -0.576300
     21 C21          7.4630     6.3660     5.8550 cc         1 8NC      -0.140400
     22 C22          6.5810    -1.8320    -2.0040 ca         1 8NC      -0.114400
     23 O23          5.2240     1.8330     1.5240 o          1 8NC      -0.640100
     24 O24          5.7980    -1.4060     0.5050 o          1 8NC      -0.638100
     25 C25          9.5720     5.5740     7.4220 cc         1 8NC      -0.238200
     26 C26          8.6500    -3.5400    -2.6910 ca         1 8NC       0.115100
     27 O27          8.9590     3.4370     6.9370 o          1 8NC      -0.692500
     28 C28          7.2490     3.5880     4.1530 ca         1 8NC      -0.052000
     29 C29          6.4410     2.6530     3.5350 ca         1 8NC      -0.104000
     30 C30          8.2370     7.3000     6.4550 cd         1 8NC      -0.211000
     31 C31          9.3220     6.9040     7.2500 cd         1 8NC      -0.021000
     32 C32          8.7070    -2.8260    -1.5050 ca         1 8NC      -0.171000
     33 C33         -0.1700     1.6520    -0.7300 c3         1 8NC       0.014700
     34 F34          3.7930     2.3090     6.0070 f          1 8NC      -0.124900
     35 C36          7.6750    -1.9740    -1.1610 ca         1 8NC      -0.066000
     36 O37          9.6670    -4.3780    -3.0300 os         1 8NC      -0.294900
     37 C38         10.7600    -4.4750    -2.1150 c3         1 8NC       0.243700
     38 H331        -1.1750     1.7750    -1.1150 h1         1 8NC       0.062033
     39 H332         0.0220     2.4020     0.0270 h1         1 8NC       0.062033
     40 H333         0.5420     1.7640    -1.5390 h1         1 8NC       0.062033
     41 H2           3.9860    -0.9660     1.9560 hc         1 8NC       0.081700
     42 H3           4.0740     1.0120    -0.3730 hc         1 8NC       0.070700
     43 H81C         2.0500     1.3240     1.8340 h1         1 8NC       0.015700
     44 H82C         1.8060    -0.3220     2.4590 h1         1 8NC       0.015700
     45 H91C         2.7170    -1.7240    -0.4380 h1         1 8NC       0.018700
     46 H92C         2.4700    -0.3420    -1.5380 h1         1 8NC       0.018700
     47 H12          3.8570     0.6890     4.0770 hn         1 8NC       0.181500
     48 H21          6.6290     6.6770     5.2380 h4         1 8NC       0.129000
     49 H14          4.9910    -0.5290    -2.3710 hn         1 8NC       0.166500
     50 H25         10.4030     5.2490     8.0360 ha         1 8NC       0.137000
     51 H13          5.4580     4.0610     6.9900 ha         1 8NC       0.128000
     52 H28          8.1550     3.9270     3.6670 ha         1 8NC       0.117000
     53 H29          6.7150     2.2590     2.5640 ha         1 8NC       0.171000
     54 H18          5.6710    -2.4350    -3.8520 ha         1 8NC       0.121000
     55 H30          8.0250     8.3530     6.3110 ha         1 8NC       0.121000
     56 H36          7.7200    -1.4160    -0.2330 ha         1 8NC       0.147000
     57 H31          9.9480     7.6460     7.7310 ha         1 8NC       0.105000
     58 H32          9.5600    -2.9370    -0.8460 ha         1 8NC       0.128000
     59 H381        10.3980    -4.8270    -1.1560 h1         1 8NC      -0.000967
     60 H382        11.4940    -5.1710    -2.5010 h1         1 8NC      -0.000967
     61 H383        11.2160    -3.5000    -1.9920 h1         1 8NC      -0.000967
     62 F35          7.5000    -4.0980    -4.6910 f          1 8NC      -0.120900
@<TRIPOS>BOND
     1     1     4 1   
     2     1    19 2   
     3     1    20 2   
     4     1    33 1   
     5     2     3 1   
     6     2     5 1   
     7     2     8 1   
     8     2    41 1   
     9     3     7 1   
    10     3     9 1   
    11     3    42 1   
    12     4     8 1   
    13     4     9 1   
    14     5    12 1   
    15     5    23 2   
    16     6    10 1   
    17     6    11 1   
    18     6    21 1   
    19     7    14 1   
    20     7    24 2   
    21     8    43 1   
    22     8    44 1   
    23     9    45 1   
    24     9    46 1   
    25    10    25 1   
    26    10    27 2   
    27    11    13 ar  
    28    11    28 ar  
    29    12    15 1   
    30    12    47 1   
    31    13    16 ar  
    32    13    51 1   
    33    14    22 1   
    34    14    49 1   
    35    15    16 ar  
    36    15    29 ar  
    37    16    34 1   
    38    17    18 ar  
    39    17    26 ar  
    40    17    62 1   
    41    18    22 ar  
    42    18    54 1   
    43    21    30 2   
    44    21    48 1   
    45    22    35 ar  
    46    25    31 2   
    47    25    50 1   
    48    26    32 ar  
    49    26    36 1   
    50    28    29 ar  
    51    28    52 1   
    52    29    53 1   
    53    30    31 1   
    54    30    55 1   
    55    31    57 1   
    56    32    35 ar  
    57    32    58 1   
    58    33    38 1   
    59    33    39 1   
    60    33    40 1   
    61    35    56 1   
    62    36    37 1   
    63    37    59 1   
    64    37    60 1   
    65    37    61 1   
@<TRIPOS>SUBSTRUCTURE
     1 8NC         1 TEMP              0 ****  ****    0 ROOT
