@<TRIPOS>MOLECULE
8ND
  117   116     1     0     0
SMALL
bcc


@<TRIPOS>ATOM
      1 C2           1.5300     0.0000     0.0000 c3         1 8ND       0.147100
      2 C1           2.0390     0.0000     1.4430 c3         1 8ND       0.199400
      3 C3           0.0000     0.0000     0.0000 c3         1 8ND       0.204400
      4 C11          3.7600     2.2740    -2.0490 c3         1 8ND      -0.073400
      5 C12          5.1030     1.8940    -2.6760 c3         1 8ND      -0.014400
      6 C13          5.6790     3.1010    -3.4190 c3         1 8ND      -0.031400
      7 C14          7.0210     2.7210    -4.0480 c3         1 8ND      -0.025400
      8 C15          7.5960     3.9290    -4.7910 c3         1 8ND      -0.028400
      9 C16          8.9390     3.5480    -5.4190 c3         1 8ND      -0.028400
     10 C17          9.5140     4.7560    -6.1620 c3         1 8ND      -0.029400
     11 C18         10.8570     4.3760    -6.7900 c3         1 8ND      -0.028400
     12 C19         11.4320     5.5830    -7.5330 c3         1 8ND      -0.029400
     13 C20         12.7750     5.2030    -8.1600 c3         1 8ND      -0.029400
     14 C21         13.3500     6.4110    -8.9040 c3         1 8ND      -0.029400
     15 C22         14.6920     6.0310    -9.5310 c3         1 8ND      -0.029400
     16 C23         15.2670     7.2370   -10.2750 c3         1 8ND      -0.029400
     17 C24         16.6100     6.8580   -10.9030 c3         1 8ND      -0.028400
     18 C25         17.1850     8.0650   -11.6470 c3         1 8ND       0.005900
     19 C30         -1.8110     1.3200     0.8110 c          1 8ND       0.682100
     20 C31         -2.3780     2.5280     1.5110 c3         1 8ND      -0.064400
     21 C32         -3.9060     2.4520     1.5010 c3         1 8ND      -0.021400
     22 C33         -4.4820     3.6790     2.2130 c3         1 8ND      -0.029400
     23 C34         -6.0110     3.6030     2.2040 c3         1 8ND      -0.027400
     24 C35         -6.5860     4.8290     2.9150 c3         1 8ND      -0.028400
     25 C36         -8.1140     4.7540     2.9050 c3         1 8ND      -0.028400
     26 C37         -8.6890     5.9800     3.6170 c3         1 8ND      -0.029400
     27 C38        -10.2180     5.9050     3.6070 c3         1 8ND      -0.029400
     28 C39        -10.7940     7.1300     4.3190 c3         1 8ND      -0.029400
     29 C40        -12.3210     7.0540     4.3100 c3         1 8ND      -0.029400
     30 C41        -12.8970     8.2810     5.0210 c3         1 8ND      -0.029400
     31 C42        -14.4250     8.2050     5.0120 c3         1 8ND      -0.029400
     32 C43        -15.0010     9.4310     5.7220 c3         1 8ND      -0.030400
     33 C44        -16.5290     9.3560     5.7130 c3         1 8ND      -0.028400
     34 C45        -17.1040    10.5810     6.4250 c3         1 8ND       0.005900
     35 O4           3.8020     0.0410    -1.2990 o          1 8ND      -0.593000
     36 O5          -2.5510     0.5350     0.2660 o          1 8ND      -0.559000
     37 O2           2.0140     1.1850    -0.6840 os         1 8ND      -0.399900
     38 O3          -0.4840     1.1180     0.7910 os         1 8ND      -0.393900
     39 O3P          3.4640    -0.1150     1.4450 os         1 8ND      -0.431600
     40 H1           1.8910    -0.8850    -0.5110 h1         1 8ND       0.063700
     41 H2           1.6090    -0.8380     1.9780 h1         1 8ND       0.019700
     42 H3           1.7510     0.9250     1.9280 h1         1 8ND       0.019700
     43 H4          -0.2850     0.3210    -0.9950 h1         1 8ND       0.039700
     44 H5          -0.0290    -1.0780    -0.1070 h1         1 8ND       0.039700
     45 H6           3.9050     3.0910    -1.3530 hc         1 8ND       0.040700
     46 H7           3.0710     2.5800    -2.8270 hc         1 8ND       0.040700
     47 H8           4.9580     1.0770    -3.3730 hc         1 8ND       0.019700
     48 H9           5.7920     1.5870    -1.8980 hc         1 8ND       0.019700
     49 H10          5.8240     3.9180    -2.7230 hc         1 8ND       0.017200
     50 H11          4.9900     3.4080    -4.1970 hc         1 8ND       0.017200
     51 H12          7.7090     2.4140    -3.2700 hc         1 8ND       0.014200
     52 H13          6.8750     1.9050    -4.7440 hc         1 8ND       0.014200
     53 H14          6.9080     4.2360    -5.5690 hc         1 8ND       0.016700
     54 H15          7.7420     4.7450    -4.0940 hc         1 8ND       0.016700
     55 H16          8.7940     2.7310    -6.1150 hc         1 8ND       0.014700
     56 H17          9.6280     3.2410    -4.6410 hc         1 8ND       0.014700
     57 H18          8.8250     5.0630    -6.9400 hc         1 8ND       0.016200
     58 H19          9.6590     5.5730    -5.4650 hc         1 8ND       0.016200
     59 H20         10.7110     3.5590    -7.4860 hc         1 8ND       0.014700
     60 H21         11.5450     4.0690    -6.0120 hc         1 8ND       0.014700
     61 H22         11.5770     6.4000    -6.8370 hc         1 8ND       0.015200
     62 H23         10.7440     5.8900    -8.3120 hc         1 8ND       0.015200
     63 H24         12.6300     4.3850    -8.8560 hc         1 8ND       0.014700
     64 H25         13.4630     4.8970    -7.3820 hc         1 8ND       0.014700
     65 H26         13.4940     7.2280    -8.2090 hc         1 8ND       0.015200
     66 H27         12.6610     6.7160    -9.6830 hc         1 8ND       0.015200
     67 H28         14.5470     5.2130   -10.2270 hc         1 8ND       0.014700
     68 H29         15.3800     5.7250    -8.7530 hc         1 8ND       0.014700
     69 H30         15.4120     8.0550    -9.5790 hc         1 8ND       0.015200
     70 H31         14.5780     7.5440   -11.0530 hc         1 8ND       0.015200
     71 H32         17.2990     6.5520   -10.1250 hc         1 8ND       0.012200
     72 H33         16.4660     6.0410   -11.5990 hc         1 8ND       0.012200
     73 H34         18.1390     7.7980   -12.0860 hc         1 8ND       0.001033
     74 H35         16.5000     8.3680   -12.4290 hc         1 8ND       0.001033
     75 H36         17.3250     8.8850   -10.9520 hc         1 8ND       0.001033
     76 H37         -2.0240     2.5520     2.5340 hc         1 8ND       0.034700
     77 H38         -2.0580     3.4270     0.9970 hc         1 8ND       0.034700
     78 H39         -4.2600     2.4290     0.4780 hc         1 8ND       0.032700
     79 H40         -4.2260     1.5530     2.0150 hc         1 8ND       0.032700
     80 H41         -4.1620     4.5780     1.7000 hc         1 8ND       0.012700
     81 H42         -4.1280     3.7020     3.2370 hc         1 8ND       0.012700
     82 H43         -6.3310     2.7040     2.7170 hc         1 8ND       0.018700
     83 H44         -6.3650     3.5800     1.1800 hc         1 8ND       0.018700
     84 H45         -6.2320     4.8510     3.9390 hc         1 8ND       0.014200
     85 H46         -6.2650     5.7280     2.4030 hc         1 8ND       0.014200
     86 H47         -8.4350     3.8550     3.4180 hc         1 8ND       0.016200
     87 H48         -8.4680     4.7310     1.8820 hc         1 8ND       0.016200
     88 H49         -8.3680     6.8780     3.1040 hc         1 8ND       0.014200
     89 H50         -8.3350     6.0020     4.6410 hc         1 8ND       0.014200
     90 H51        -10.5710     5.8820     2.5840 hc         1 8ND       0.015700
     91 H52        -10.5380     5.0060     4.1200 hc         1 8ND       0.015700
     92 H53        -10.4730     8.0290     3.8070 hc         1 8ND       0.014200
     93 H54        -10.4400     7.1530     5.3430 hc         1 8ND       0.014200
     94 H55        -12.6410     6.1560     4.8230 hc         1 8ND       0.015200
     95 H56        -12.6750     7.0310     3.2860 hc         1 8ND       0.015200
     96 H57        -12.5770     9.1800     4.5080 hc         1 8ND       0.014700
     97 H58        -12.5430     8.3040     6.0450 hc         1 8ND       0.014700
     98 H59        -14.7450     7.3070     5.5260 hc         1 8ND       0.014700
     99 H60        -14.7790     8.1820     3.9880 hc         1 8ND       0.014700
    100 H61        -14.6810    10.3300     5.2090 hc         1 8ND       0.014700
    101 H62        -14.6470     9.4550     6.7460 hc         1 8ND       0.014700
    102 H63        -16.8840     9.3330     4.6890 hc         1 8ND       0.012200
    103 H64        -16.8490     8.4570     6.2260 hc         1 8ND       0.012200
    104 H65        -16.8130    11.4780     5.8910 hc         1 8ND       0.000700
    105 H66        -18.1850    10.5110     6.4490 hc         1 8ND       0.000700
    106 H67        -16.7220    10.6230     7.4370 hc         1 8ND       0.000700
    107 C4           4.0350    -0.2360     2.7490 c3         1 8ND       0.202400
    108 C5           5.5610    -0.2280     2.6410 c3         1 8ND      -0.048200
    109 N1           6.0100     1.0800     2.1450 nz         1 8ND       0.085400
    110 H68          3.7130     0.5960     3.3630 h1         1 8ND       0.027700
    111 H69          3.7100    -1.1650     3.2000 h1         1 8ND       0.027700
    112 H70          5.9930    -0.4120     3.6170 hx         1 8ND       0.091200
    113 H71          5.8780    -1.0030     1.9540 hx         1 8ND       0.091200
    114 H72          6.9360     1.2620     2.4780 hn         1 8ND       0.226133
    115 H73          6.0110     1.0750     1.1440 hn         1 8ND       0.226133
    116 C10          3.1940     1.0840    -1.3170 c          1 8ND       0.685100
    117 H131         5.3910     1.7930     2.4750 hn         1 8ND       0.226133
@<TRIPOS>BOND
     1     1     2 1   
     2     1     3 1   
     3     1    37 1   
     4     1    40 1   
     5     2    39 1   
     6     2    41 1   
     7     2    42 1   
     8     3    38 1   
     9     3    43 1   
    10     3    44 1   
    11     4     5 1   
    12     4    45 1   
    13     4    46 1   
    14     4   116 1   
    15     5     6 1   
    16     5    47 1   
    17     5    48 1   
    18     6     7 1   
    19     6    49 1   
    20     6    50 1   
    21     7     8 1   
    22     7    51 1   
    23     7    52 1   
    24     8     9 1   
    25     8    53 1   
    26     8    54 1   
    27     9    10 1   
    28     9    55 1   
    29     9    56 1   
    30    10    11 1   
    31    10    57 1   
    32    10    58 1   
    33    11    12 1   
    34    11    59 1   
    35    11    60 1   
    36    12    13 1   
    37    12    61 1   
    38    12    62 1   
    39    13    14 1   
    40    13    63 1   
    41    13    64 1   
    42    14    15 1   
    43    14    65 1   
    44    14    66 1   
    45    15    16 1   
    46    15    67 1   
    47    15    68 1   
    48    16    17 1   
    49    16    69 1   
    50    16    70 1   
    51    17    18 1   
    52    17    71 1   
    53    17    72 1   
    54    18    73 1   
    55    18    74 1   
    56    18    75 1   
    57    19    20 1   
    58    19    36 2   
    59    19    38 1   
    60    20    21 1   
    61    20    76 1   
    62    20    77 1   
    63    21    22 1   
    64    21    78 1   
    65    21    79 1   
    66    22    23 1   
    67    22    80 1   
    68    22    81 1   
    69    23    24 1   
    70    23    82 1   
    71    23    83 1   
    72    24    25 1   
    73    24    84 1   
    74    24    85 1   
    75    25    26 1   
    76    25    86 1   
    77    25    87 1   
    78    26    27 1   
    79    26    88 1   
    80    26    89 1   
    81    27    28 1   
    82    27    90 1   
    83    27    91 1   
    84    28    29 1   
    85    28    92 1   
    86    28    93 1   
    87    29    30 1   
    88    29    94 1   
    89    29    95 1   
    90    30    31 1   
    91    30    96 1   
    92    30    97 1   
    93    31    32 1   
    94    31    98 1   
    95    31    99 1   
    96    32    33 1   
    97    32   100 1   
    98    32   101 1   
    99    33    34 1   
   100    33   102 1   
   101    33   103 1   
   102    34   104 1   
   103    34   105 1   
   104    34   106 1   
   105    35   116 2   
   106    37   116 1   
   107    39   107 1   
   108   107   108 1   
   109   107   110 1   
   110   107   111 1   
   111   108   109 1   
   112   108   112 1   
   113   108   113 1   
   114   109   114 1   
   115   109   115 1   
   116   109   117 1   
@<TRIPOS>SUBSTRUCTURE
     1 8ND         1 TEMP              0 ****  ****    0 ROOT
