@<TRIPOS>MOLECULE
8NE
   22    22     1     0     0
SMALL
bcc


@<TRIPOS>ATOM
      1 C1           0.0000     0.0000     0.0000 ca         1 8NE      -0.019000
      2 C2           1.3800     0.0000     0.0000 ca         1 8NE      -0.010000
      3 C3           2.0750     0.0000     1.1970 ca         1 8NE      -0.039300
      4 C4           1.3910    -0.0000     2.4000 ca         1 8NE      -0.010000
      5 C5           0.0110    -0.0000     2.4130 ca         1 8NE      -0.019000
      6 C6          -0.6940    -0.0000     1.2100 ca         1 8NE      -0.273900
      7 C7          -2.1740     0.0060     1.2170 ce         1 8NE       0.032800
      8 N8          -2.8380    -0.5700     2.2160 nv         1 8NE       0.392900
      9 N9          -2.8420     0.5880     0.2220 nz         1 8NE       0.152400
     10 C10          3.5820    -0.0010     1.1900 c3         1 8NE       0.631200
     11 F11          4.0420     0.6580     0.0460 f          1 8NE      -0.174300
     12 F12          4.0530     0.6580     2.3300 f          1 8NE      -0.174300
     13 F13          4.0470    -1.3210     1.1880 f          1 8NE      -0.174300
     14 H1          -0.5430     0.0000    -0.9370 ha         1 8NE       0.115000
     15 H2           1.9210     0.0000    -0.9390 ha         1 8NE       0.170500
     16 H4           1.9410    -0.0000     3.3340 ha         1 8NE       0.170500
     17 H5          -0.5230    -0.0010     3.3560 ha         1 8NE       0.115000
     18 HN8         -2.3370    -1.0080     2.9640 hn         1 8NE       0.164200
     19 HN9         -2.9000    -0.0410    -0.5540 hn         1 8NE       0.261133
     20 HN9A        -3.7650     0.8220     0.5320 hn         1 8NE       0.261133
     21 H3          -3.8390    -0.5660     2.2200 hn         1 8NE       0.164200
     22 H93         -2.3640     1.4210    -0.0590 hn         1 8NE       0.261133
@<TRIPOS>BOND
     1     1     2 ar  
     2     1     6 ar  
     3     1    14 1   
     4     2     3 ar  
     5     2    15 1   
     6     3     4 ar  
     7     3    10 1   
     8     4     5 ar  
     9     4    16 1   
    10     5     6 ar  
    11     5    17 1   
    12     6     7 1   
    13     7     8 2   
    14     7     9 1   
    15     8    18 1   
    16     8    21 1   
    17     9    19 1   
    18     9    20 1   
    19     9    22 1   
    20    10    11 1   
    21    10    12 1   
    22    10    13 1   
@<TRIPOS>SUBSTRUCTURE
     1 8NE         1 TEMP              0 ****  ****    0 ROOT
