@<TRIPOS>MOLECULE
molecule
   22    22     1     0     0
SMALL
bcc


@<TRIPOS>ATOM
      1 C1           0.0000     0.0000     0.0000 ca         1 8NE      -0.054500
      2 C2           1.3800     0.0000     0.0000 ca         1 8NE      -0.059000
      3 C3           2.0750     0.0000     1.1970 ca         1 8NE      -0.032300
      4 C4           1.3910    -0.0000     2.4000 ca         1 8NE      -0.059000
      5 C5           0.0110    -0.0000     2.4130 ca         1 8NE      -0.054500
      6 C6          -0.6940    -0.0000     1.2100 ca         1 8NE      -0.272900
      7 C7          -2.1740     0.0060     1.2170 ce         1 8NE       0.503800
      8 N8          -2.8380    -0.5700     2.2160 nv         1 8NE      -0.332100
      9 N9          -2.8420     0.5880     0.2220 nz         1 8NE      -0.789600
     10 C10          3.5820    -0.0010     1.1900 c3         1 8NE       0.672200
     11 F11          4.0420     0.6580     0.0460 f          1 8NE      -0.181633
     12 F12          4.0530     0.6580     2.3300 f          1 8NE      -0.181633
     13 F13          4.0470    -1.3210     1.1880 f          1 8NE      -0.181633
     14 H1          -0.5430     0.0000    -0.9370 ha         1 8NE       0.154500
     15 H2           1.9210     0.0000    -0.9390 ha         1 8NE       0.215000
     16 H4           1.9410    -0.0000     3.3340 ha         1 8NE       0.215000
     17 H5          -0.5230    -0.0010     3.3560 ha         1 8NE       0.154500
     18 HN8         -3.8390    -0.5660     2.2200 hn         1 8NE       0.369200
     19 HN9         -2.3640     1.4210    -0.0590 hn         1 8NE       0.514800
     20 HN9A        -3.7650     0.8220     0.5320 hn         1 8NE       0.514800
     21 H3          -2.3370    -1.0080     2.9640 hn         1 8NE       0.369200
     22 H93         -2.9000    -0.0410    -0.5540 hn         1 8NE       0.514800
@<TRIPOS>BOND
     1    11    10 1   
     2    12    10 1   
     3    10     3 1   
     4    10    13 1   
     5     3     4 ar  
     6     3     2 ar  
     7     4     5 ar  
     8     2     1 ar  
     9     5     6 ar  
    10     1     6 ar  
    11     6     7 1   
    12     7     8 2   
    13     7     9 1   
    14     1    14 1   
    15     2    15 1   
    16     4    16 1   
    17     5    17 1   
    18     8    18 1   
    19     9    19 1   
    20     9    20 1   
    21     8    21 1   
    22    22     9 1   
@<TRIPOS>SUBSTRUCTURE
     1 8NE         1 TEMP              0 ****  ****    0 ROOT
