@<TRIPOS>MOLECULE
molecule
   51    54     1     0     0
SMALL
bcc


@<TRIPOS>ATOM
      1 C4           0.0000     0.0000     0.0000 ca         1 8NG      -0.176000
      2 C5           7.1740     0.2080     3.5280 cc         1 8NG      -0.202000
      3 C6           6.1160    -2.4830     1.3050 ca         1 8NG      -0.088000
      4 C7          -0.0050     0.0000     2.3990 ca         1 8NG      -0.206000
      5 C8           7.9740     1.1320     4.0980 cd         1 8NG      -0.116300
      6 C10          5.4690    -1.2530     1.2170 ca         1 8NG      -0.051800
      7 C13          2.0740     0.0000     1.2020 ca         1 8NG       0.041100
      8 C15          1.3780    -0.0000     2.4030 ca         1 8NG       0.155900
      9 C17          6.3070     0.6220    -0.1550 cd         1 8NG      -0.013400
     10 C20          6.7830    -5.8750    -2.3460 c3         1 8NG      -0.072100
     11 C22          6.8480    -5.0480    -1.0610 c3         1 8NG      -0.224600
     12 C1           3.9890    -3.5810     1.5320 ca         1 8NG      -0.071000
     13 C2           3.3420    -2.3630     1.4460 ca         1 8NG      -0.205000
     14 C3           1.3820     0.0000     0.0000 ca         1 8NG      -0.085000
     15 C9           6.9960     0.5680     2.1790 cc         1 8NG      -0.049800
     16 C11          5.3750    -3.6440     1.4620 ca         1 8NG       0.076600
     17 C12          4.0730    -1.1980     1.2880 ca         1 8NG       0.148100
     18 C14         -0.6940    -0.0010     1.1980 ca         1 8NG       0.164900
     19 C16          7.7240     1.7440     1.9720 cd         1 8NG      -0.189900
     20 C18          6.2560    -0.0090     1.0490 cc         1 8NG      -0.063400
     21 C19          7.7200     2.3290     0.6900 c          1 8NG       0.728100
     22 N23          8.3160     2.0690     3.1700 na         1 8NG      -0.123100
     23 N24          7.0290     1.7670    -0.3170 n          1 8NG      -0.329000
     24 O26          8.3500     3.3560     0.4920 o          1 8NG      -0.671500
     25 O27          4.6040    -6.0620    -0.0350 o          1 8NG      -0.627800
     26 O28          6.7500    -7.0450     0.7060 o          1 8NG      -0.627800
     27 O29          3.4350     0.0010     1.2030 os         1 8NG      -0.225200
     28 F30         -2.0450     0.0000     1.1950 f          1 8NG      -0.128900
     29 F31          2.0510     0.0000     3.5740 f          1 8NG      -0.115900
     30 S32          5.9860    -5.9290     0.2690 s6         1 8NG       1.326900
     31 H4          -0.5410    -0.0000    -0.9390 ha         1 8NG       0.157000
     32 H5           6.7450    -0.6560     4.0210 ha         1 8NG       0.157000
     33 H6           7.1970    -2.5320     1.2500 ha         1 8NG       0.149000
     34 H7          -0.5490    -0.0000     3.3360 ha         1 8NG       0.167000
     35 H8           8.2950     1.1300     5.1330 h4         1 8NG       0.171000
     36 H17          5.7670     0.2080    -0.9980 h4         1 8NG       0.155000
     37 H203         7.3470    -5.3770    -3.1250 hc         1 8NG       0.050700
     38 H202         7.2050    -6.8570    -2.1660 hc         1 8NG       0.050700
     39 H201         5.7510    -5.9780    -2.6580 hc         1 8NG       0.050700
     40 H212         8.0700     2.4590    -1.9940 h1         1 8NG       0.053367
     41 H213         6.4500     1.8310    -2.3270 h1         1 8NG       0.053367
     42 H211         6.6460     3.4100    -1.5540 h1         1 8NG       0.053367
     43 H1           3.4130    -4.4900     1.6550 ha         1 8NG       0.161000
     44 H2           2.2610    -2.3200     1.5010 ha         1 8NG       0.148000
     45 H3           1.9240     0.0000    -0.9380 ha         1 8NG       0.156000
     46 H23          8.9020     2.8630     3.3340 hn         1 8NG       0.311700
     47 H9           7.8840    -4.8960    -0.7820 h1         1 8NG       0.098700
     48 H10          6.3740    -4.0880    -1.2250 h1         1 8NG       0.098700
     49 H11          6.4720    -5.1510     2.4050 hn         1 8NG       0.465800
     50 N25          6.0240    -4.8810     1.5510 nu         1 8NG      -0.779500
     51 C21          7.0500     2.4090    -1.6340 c3         1 8NG       0.093300
@<TRIPOS>BOND
     1     1    14 ar
     2     1    18 ar
     3     2     5 2
     4     2    15 1
     5     3     6 ar
     6     3    16 ar
     7     4     8 ar
     8     4    18 ar
     9     5    22 1
    10     6    17 ar
    11     6    20 1
    12     7     8 ar
    13     7    14 ar
    14     7    27 1
    15     8    29 1
    16     9    20 2
    17     9    23 1
    18    10    11 1
    19    51    23 1
    20    11    30 1
    21    12    13 ar
    22    12    16 ar
    23    13    17 ar
    24    15    19 2
    25    15    20 1
    26    16    50 1
    27    17    27 1
    28    18    28 1
    29    19    21 1
    30    19    22 1
    31    21    23 1
    32    21    24 2
    33    50    30 1
    34    25    30 2
    35    26    30 2
    36     1    31 1
    37     2    32 1
    38     3    33 1
    39     4    34 1
    40     5    35 1
    41     9    36 1
    42    10    37 1
    43    10    38 1
    44    10    39 1
    45    51    40 1
    46    51    41 1
    47    51    42 1
    48    12    43 1
    49    13    44 1
    50    14    45 1
    51    22    46 1
    52    11    47 1
    53    11    48 1
    54    50    49 1
@<TRIPOS>SUBSTRUCTURE
     1 8NG         1 TEMP              0 ****  ****    0 ROOT
