@<TRIPOS>MOLECULE
8NH
   33    35     1     0     0
SMALL
bcc


@<TRIPOS>ATOM
      1 Cl1          0.0000     0.0000     0.0000 cl         1 8NH       0.018600
      2 C2           1.7370     0.0000     0.0000 ca         1 8NH      -0.021600
      3 C3           2.4240     0.0000     1.2140 ca         1 8NH      -0.045300
      4 C4           3.8210    -0.0000     1.2320 ca         1 8NH      -0.051400
      5 C5           4.5260    -0.0010     0.0250 ca         1 8NH      -0.072000
      6 C7           3.8390    -0.0010    -1.1890 ca         1 8NH      -0.073000
      7 C9           2.4440    -0.0010    -1.2020 ca         1 8NH       0.058000
      8 C10          1.7840    -0.0010    -2.4730 cg         1 8NH       0.223800
      9 N11          1.2460     0.0180    -3.4990 n1         1 8NH      -0.363800
     10 N12          4.5490    -0.0010     2.4640 n          1 8NH      -0.062600
     11 C13          4.8750     1.1530     3.1930 c          1 8NH       0.666500
     12 N14          5.5980     0.7200     4.3030 n          1 8NH      -0.208800
     13 C15          5.7720    -0.7020     4.3600 c3         1 8NH      -0.083300
     14 C17          5.3120    -1.0450     5.7660 c3         1 8NH       0.196100
     15 C19          5.8190     0.1660     6.5680 c3         1 8NH      -0.075400
     16 C22          5.6450     1.3490     5.6090 c3         1 8NH       0.082000
     17 O25          3.8920    -1.1060     5.8300 oh         1 8NH      -0.582800
     18 C27          4.9580    -1.1390     3.1600 c          1 8NH       0.647500
     19 O28          4.7930    -2.3220     2.8960 o          1 8NH      -0.600500
     20 O29          4.5180     2.3090     3.0080 o          1 8NH      -0.637500
     21 C30          1.6810     0.0000     2.5160 c3         1 8NH       0.030200
     22 H5           5.6090    -0.0020     0.0320 ha         1 8NH       0.116000
     23 H7           4.3890    -0.0020    -2.1220 ha         1 8NH       0.120000
     24 H15          6.8160    -0.9590     4.2270 h1         1 8NH       0.066700
     25 H17          5.7690    -1.9640     6.1140 h1         1 8NH       0.023700
     26 H191         6.8790     0.0310     6.7500 hc         1 8NH       0.042200
     27 H192         5.1570     0.3140     7.4120 hc         1 8NH       0.042200
     28 H221         4.7170     1.8700     5.8130 h1         1 8NH       0.028700
     29 H222         6.4910     2.0220     5.6760 h1         1 8NH       0.028700
     30 HO25         3.6330    -1.7800     6.4360 ho         1 8NH       0.404000
     31 H301         1.9580    -0.8760     3.0900 hc         1 8NH       0.027033
     32 H302         0.6150    -0.0170     2.3230 hc         1 8NH       0.027033
     33 H303         1.9320     0.8930     3.0750 hc         1 8NH       0.027033
@<TRIPOS>BOND
     1     1     2 1   
     2     2     3 ar  
     3     2     7 ar  
     4     3     4 ar  
     5     3    21 1   
     6     4     5 ar  
     7     4    10 1   
     8     5     6 ar  
     9     5    22 1   
    10     6     7 ar  
    11     6    23 1   
    12     7     8 1   
    13     8     9 3   
    14    10    11 1   
    15    10    18 1   
    16    11    12 1   
    17    11    20 2   
    18    12    13 1   
    19    12    16 1   
    20    13    14 1   
    21    13    18 1   
    22    13    24 1   
    23    14    15 1   
    24    14    17 1   
    25    14    25 1   
    26    15    16 1   
    27    15    26 1   
    28    15    27 1   
    29    16    28 1   
    30    16    29 1   
    31    17    30 1   
    32    18    19 2   
    33    21    31 1   
    34    21    32 1   
    35    21    33 1   
@<TRIPOS>SUBSTRUCTURE
     1 8NH         1 TEMP              0 ****  ****    0 ROOT
