@<TRIPOS>MOLECULE
molecule
   40    43     1     0     0
SMALL
bcc


@<TRIPOS>ATOM
      1 C4           0.0000     0.0000     0.0000 ca         1 8NJ      -0.120500
      2 C5           3.9910     3.5940     1.2240 ca         1 8NJ      -0.092000
      3 C6           6.1160     2.4840     1.2110 ca         1 8NJ      -0.080000
      4 C7           1.3770    -0.0100     2.4020 ca         1 8NJ      -0.136500
      5 C8           1.3810     0.0000     0.0000 ca         1 8NJ      -0.136500
      6 C10          7.0320     0.0420    -1.3390 cc         1 8NJ      -0.204000
      7 C13          6.9310    -0.4580    -0.0260 cd         1 8NJ      -0.047800
      8 C15          4.0720     1.1990     1.2070 ca         1 8NJ       0.147100
      9 C17          6.3790    -0.7570     2.3240 cc         1 8NJ      -0.013400
     10 C20          7.2080    -2.6820     3.5650 c3         1 8NJ       0.094300
     11 C1          -0.6920     0.0020     1.1970 ca         1 8NJ      -0.129000
     12 C2           5.3740     3.6490     1.2200 ca         1 8NJ      -0.167000
     13 C3          -0.0040    -0.0040     2.3970 ca         1 8NJ      -0.120500
     14 C9           3.3410     2.3760     1.2210 ca         1 8NJ      -0.211000
     15 C11          7.7900    -0.8190    -2.0490 cd         1 8NJ      -0.119300
     16 C12          5.4700     1.2500     1.2080 ca         1 8NJ      -0.060800
     17 C14          2.0740     0.0000     1.2020 ca         1 8NJ       0.098100
     18 C16          7.6670    -1.6470     0.0140 cc         1 8NJ      -0.191900
     19 C18          6.2600    -0.0050     1.1990 cd         1 8NJ      -0.060400
     20 C19          7.7380    -2.3610     1.2250 c          1 8NJ       0.728100
     21 N21          8.1840    -1.8450    -1.2450 na         1 8NJ      -0.124100
     22 N22          7.1090    -1.9080     2.3260 n          1 8NJ      -0.329000
     23 O23          8.3740    -3.4010     1.2790 o          1 8NJ      -0.674500
     24 O24          3.4330    -0.0010     1.2040 os         1 8NJ      -0.242200
     25 H1          -0.5420     0.0020    -0.9380 ha         1 8NJ       0.135500
     26 H2           3.4160     4.5120     1.2330 ha         1 8NJ       0.131000
     27 H3           7.1980     2.5300     1.2100 ha         1 8NJ       0.143000
     28 H4           1.9160    -0.0120     3.3420 ha         1 8NJ       0.144500
     29 H5           1.9230     0.0030    -0.9380 ha         1 8NJ       0.144500
     30 H6           6.5780     0.9520    -1.7130 ha         1 8NJ       0.156000
     31 H7           5.8870    -0.4370     3.2340 h4         1 8NJ       0.158000
     32 H8           8.2490    -2.7770     3.8490 h1         1 8NJ       0.052700
     33 H9           6.6640    -2.1740     4.3520 h1         1 8NJ       0.052700
     34 H10          6.7840    -3.6670     3.4100 h1         1 8NJ       0.052700
     35 H11         -1.7750     0.0040     1.1960 ha         1 8NJ       0.133000
     36 H12          5.8760     4.6090     1.2220 ha         1 8NJ       0.132000
     37 H13         -0.5490    -0.0070     3.3340 ha         1 8NJ       0.135500
     38 H14          2.2580     2.3400     1.2230 ha         1 8NJ       0.145000
     39 H15          8.0460    -0.7110    -3.0960 h4         1 8NJ       0.169000
     40 H16          8.7550    -2.6180    -1.5250 hn         1 8NJ       0.310700
@<TRIPOS>BOND
     1    10    22 1
     2    23    20 2
     3    22    20 1
     4    22     9 1
     5    20    18 1
     6     9    19 2
     7    18    21 1
     8    18     7 2
     9    21    15 1
    10     3    12 ar
    11     3    16 ar
    12    19     7 1
    13    19    16 1
    14     7     6 1
    15    12     2 ar
    16    16     8 ar
    17    15     6 2
    18     2    14 ar
    19     8    14 ar
    20     8    24 1
    21    24    17 1
    22    17     5 ar
    23    17     4 ar
    24     5     1 ar
    25     4    13 ar
    26     1    11 ar
    27    13    11 ar
    28     1    25 1
    29     2    26 1
    30     3    27 1
    31     4    28 1
    32     5    29 1
    33     6    30 1
    34     9    31 1
    35    10    32 1
    36    10    33 1
    37    10    34 1
    38    11    35 1
    39    12    36 1
    40    13    37 1
    41    14    38 1
    42    15    39 1
    43    21    40 1
@<TRIPOS>SUBSTRUCTURE
     1 8NJ         1 TEMP              0 ****  ****    0 ROOT
