@<TRIPOS>MOLECULE
8NJ
   40    43     1     0     0
SMALL
bcc


@<TRIPOS>ATOM
      1 C4           0.0000     0.0000     0.0000 ca         1 8NJ      -0.088500
      2 C5           3.9910     3.5940     1.2240 ca         1 8NJ      -0.060000
      3 C6           6.1160     2.4840     1.2110 ca         1 8NJ      -0.053000
      4 C7           1.3770    -0.0100     2.4020 ca         1 8NJ      -0.117000
      5 C8           1.3810     0.0000     0.0000 ca         1 8NJ      -0.117000
      6 C10          7.0320     0.0420    -1.3390 cc         1 8NJ      -0.164000
      7 C13          6.9310    -0.4580    -0.0260 cc         1 8NJ      -0.054800
      8 C15          4.0720     1.1990     1.2070 ca         1 8NJ       0.153100
      9 C17          6.3790    -0.7570     2.3240 cd         1 8NJ      -0.164400
     10 C20          7.2080    -2.6820     3.5650 c3         1 8NJ       0.057300
     11 C1          -0.6920     0.0020     1.1970 ca         1 8NJ      -0.106000
     12 C2           5.3740     3.6490     1.2200 ca         1 8NJ      -0.144000
     13 C3          -0.0040    -0.0040     2.3970 ca         1 8NJ      -0.088500
     14 C9           3.3410     2.3760     1.2210 ca         1 8NJ      -0.202000
     15 C11          7.7900    -0.8190    -2.0490 cd         1 8NJ      -0.314300
     16 C12          5.4700     1.2500     1.2080 ca         1 8NJ      -0.064800
     17 C14          2.0740     0.0000     1.2020 ca         1 8NJ       0.101100
     18 C16          7.6670    -1.6470     0.0140 cd         1 8NJ      -0.398900
     19 C18          6.2600    -0.0050     1.1990 cc         1 8NJ      -0.025400
     20 C19          7.7380    -2.3610     1.2250 c          1 8NJ       0.649100
     21 N21          8.1840    -1.8450    -1.2450 na         1 8NJ       0.472900
     22 N22          7.1090    -1.9080     2.3260 n          1 8NJ       0.099000
     23 O23          8.3740    -3.4010     1.2790 o          1 8NJ      -0.730500
     24 O24          3.4330    -0.0010     1.2040 os         1 8NJ      -0.215200
     25 H1          -0.5420     0.0020    -0.9380 ha         1 8NJ       0.105500
     26 H2           3.4160     4.5120     1.2330 ha         1 8NJ       0.100000
     27 H3           7.1980     2.5300     1.2100 ha         1 8NJ       0.111000
     28 H4           1.9160    -0.0120     3.3420 ha         1 8NJ       0.116000
     29 H5           1.9230     0.0030    -0.9380 ha         1 8NJ       0.116000
     30 H6           6.5780     0.9520    -1.7130 ha         1 8NJ       0.131000
     31 H7           5.8870    -0.4370     3.2340 h4         1 8NJ       0.132000
     32 H8           8.2490    -2.7770     3.8490 h1         1 8NJ       0.020367
     33 H9           6.6640    -2.1740     4.3520 h1         1 8NJ       0.020367
     34 H10          6.7840    -3.6670     3.4100 h1         1 8NJ       0.020367
     35 H11         -1.7750     0.0040     1.1960 ha         1 8NJ       0.105000
     36 H12          5.8760     4.6090     1.2220 ha         1 8NJ       0.106000
     37 H13         -0.5490    -0.0070     3.3340 ha         1 8NJ       0.105500
     38 H14          2.2580     2.3400     1.2230 ha         1 8NJ       0.126000
     39 H15          8.0460    -0.7110    -3.0960 h4         1 8NJ       0.143000
     40 H16          8.7550    -2.6180    -1.5250 hn         1 8NJ       0.116700
@<TRIPOS>BOND
     1     1     5 ar  
     2     1    11 ar  
     3     1    25 1   
     4     2    12 ar  
     5     2    14 ar  
     6     2    26 1   
     7     3    12 ar  
     8     3    16 ar  
     9     3    27 1   
    10     4    13 ar  
    11     4    17 ar  
    12     4    28 1   
    13     5    17 ar  
    14     5    29 1   
    15     6     7 1   
    16     6    15 2   
    17     6    30 1   
    18     7    18 2   
    19     7    19 1   
    20     8    14 ar  
    21     8    16 ar  
    22     8    24 1   
    23     9    19 2   
    24     9    22 1   
    25     9    31 1   
    26    10    22 1   
    27    10    32 1   
    28    10    33 1   
    29    10    34 1   
    30    11    13 ar  
    31    11    35 1   
    32    12    36 1   
    33    13    37 1   
    34    14    38 1   
    35    15    21 1   
    36    15    39 1   
    37    16    19 1   
    38    17    24 1   
    39    18    20 1   
    40    18    21 1   
    41    20    22 1   
    42    20    23 2   
    43    21    40 1   
@<TRIPOS>SUBSTRUCTURE
     1 8NJ         1 TEMP              0 ****  ****    0 ROOT
