@<TRIPOS>MOLECULE
8NK
   45    47     1     0     0
SMALL
bcc


@<TRIPOS>ATOM
      1 PA           0.0000     0.0000     0.0000 p5         1 8NK       0.998800
      2 O1A          1.6100     0.0000     0.0000 o          1 8NK      -0.628500
      3 O2A         -0.4920     0.0000     1.3960 o          1 8NK      -0.628500
      4 O3A         -0.5360     1.3150    -0.7580 os         1 8NK      -0.478800
      5 O5'         -0.5370    -1.3140    -0.7580 os         1 8NK      -0.498200
      6 PB          -0.6260     2.8740    -0.3670 p5         1 8NK       0.908900
      7 O1B         -0.8990     3.7450    -1.6930 o          1 8NK      -0.291500
      8 O2B         -1.8300     3.0960     0.6780 o          1 8NK      -0.291500
      9 O3B          0.6490     3.3020     0.2510 o          1 8NK      -0.291500
     10 C5'         -0.3190    -2.6390    -0.2690 c3         1 8NK       0.313400
     11 C4'         -0.9570    -3.6480    -1.2260 c3         1 8NK       0.140100
     12 O4'         -0.2700    -3.6270    -2.4880 os         1 8NK      -0.381600
     13 C3'         -0.8220    -5.0720    -0.6530 c3         1 8NK       0.120100
     14 O3'         -2.1110    -5.6540    -0.4490 oh         1 8NK      -0.562800
     15 C2'         -0.0410    -5.8460    -1.7430 c3         1 8NK       0.123100
     16 O2'         -0.5750    -7.1600    -1.9160 oh         1 8NK      -0.546800
     17 C1'         -0.2910    -4.9770    -3.0020 c3         1 8NK       0.168800
     18 N9           0.7780    -5.1710    -3.9840 na         1 8NK       0.342900
     19 C8           1.8920    -4.3950    -4.1290 cc         1 8NK      -0.491600
     20 N7           2.6280    -4.8570    -5.0980 na         1 8NK       0.735900
     21 CM7          3.8990    -4.2840    -5.5430 c3         1 8NK      -0.068400
     22 C5           2.0320    -5.9530    -5.6310 cc         1 8NK      -0.680900
     23 C6           2.3640    -6.8430    -6.6780 c          1 8NK       0.720100
     24 O6           3.3900    -6.6970    -7.3210 o          1 8NK      -0.793500
     25 N1           1.5170    -7.8600    -6.9490 ns         1 8NK       0.025600
     26 C2           0.3730    -8.0150    -6.2240 cc         1 8NK      -0.459200
     27 N2          -0.4690    -9.0570    -6.5210 nz         1 8NK       0.380400
     28 N3           0.0520    -7.1940    -5.2480 nd         1 8NK      -0.514100
     29 C4           0.8460    -6.1680    -4.9190 cd         1 8NK       0.009100
     30 H4           0.7460    -2.8280    -0.2010 h1         1 8NK      -0.012800
     31 H5          -0.7660    -2.7390     0.7130 h1         1 8NK      -0.012800
     32 H6          -2.0040    -3.4110    -1.3750 h1         1 8NK       0.040700
     33 H7          -0.2580    -5.0540     0.2720 h1         1 8NK       0.012700
     34 H8          -2.2360    -5.8260     0.4700 ho         1 8NK       0.382000
     35 H9           1.0160    -5.8800    -1.5050 h1         1 8NK       0.019700
     36 H10         -0.1540    -7.7520    -1.3160 ho         1 8NK       0.376000
     37 H11         -1.2590    -5.2030    -3.4320 h2         1 8NK       0.056700
     38 H12          2.1270    -3.5250    -3.5290 h5         1 8NK       0.194000
     39 H13          4.6850    -5.0220    -5.4380 h1         1 8NK       0.038033
     40 H14          4.1350    -3.4160    -4.9400 h1         1 8NK       0.038033
     41 H15          3.8180    -3.9900    -6.5830 h1         1 8NK       0.038033
     42 H16          1.7300    -8.5030    -7.6850 hn         1 8NK       0.128500
     43 H17         -0.0130    -9.9240    -6.3140 hn         1 8NK       0.106467
     44 H18         -1.3020    -8.9800    -5.9720 hn         1 8NK       0.106467
     45 H23         -0.7060    -9.0290    -7.4930 hn         1 8NK       0.106467
@<TRIPOS>BOND
     1     1     2 1   
     2     1     3 1   
     3     1     4 1   
     4     1     5 1   
     5     4     6 1   
     6     5    10 1   
     7     6     7 1   
     8     6     8 1   
     9     6     9 1   
    10    10    11 1   
    11    10    30 1   
    12    10    31 1   
    13    11    12 1   
    14    11    13 1   
    15    11    32 1   
    16    12    17 1   
    17    13    14 1   
    18    13    15 1   
    19    13    33 1   
    20    14    34 1   
    21    15    16 1   
    22    15    17 1   
    23    15    35 1   
    24    16    36 1   
    25    17    18 1   
    26    17    37 1   
    27    18    19 2   
    28    18    29 1   
    29    19    20 1   
    30    19    38 1   
    31    20    21 1   
    32    20    22 1   
    33    21    39 1   
    34    21    40 1   
    35    21    41 1   
    36    22    23 1   
    37    22    29 2   
    38    23    24 2   
    39    23    25 1   
    40    25    26 1   
    41    25    42 1   
    42    26    27 1   
    43    26    28 2   
    44    27    43 1   
    45    27    44 1   
    46    27    45 1   
    47    28    29 1   
@<TRIPOS>SUBSTRUCTURE
     1 8NK         1 TEMP              0 ****  ****    0 ROOT
