@<TRIPOS>MOLECULE
molecule
   45    47     1     0     0
SMALL
bcc


@<TRIPOS>ATOM
      1 PA           0.0000     0.0000     0.0000 p5         1 8NK       1.443800
      2 O1A          1.6100     0.0000     0.0000 o          1 8NK      -0.778000
      3 O2A         -0.4920     0.0000     1.3960 o          1 8NK      -0.778000
      4 O3A         -0.5360     1.3150    -0.7580 os         1 8NK      -0.688800
      5 O5'         -0.5370    -1.3140    -0.7580 os         1 8NK      -0.597200
      6 PB          -0.6260     2.8740    -0.3670 p5         1 8NK       1.249900
      7 O1B         -0.8990     3.7450    -1.6930 o          1 8NK      -0.449833
      8 O2B         -1.8300     3.0960     0.6780 o          1 8NK      -0.449833
      9 O3B          0.6490     3.3020     0.2510 o          1 8NK      -0.449833
     10 C5'         -0.3190    -2.6390    -0.2690 c3         1 8NK       0.231400
     11 C4'         -0.9570    -3.6480    -1.2260 c3         1 8NK       0.117100
     12 O4'         -0.2700    -3.6270    -2.4880 os         1 8NK      -0.395600
     13 C3'         -0.8220    -5.0720    -0.6530 c3         1 8NK       0.078100
     14 O3'         -2.1110    -5.6540    -0.4490 oh         1 8NK      -0.581800
     15 C2'         -0.0410    -5.8460    -1.7430 c3         1 8NK       0.089100
     16 O2'         -0.5750    -7.1600    -1.9160 oh         1 8NK      -0.569800
     17 C1'         -0.2910    -4.9770    -3.0020 c3         1 8NK       0.274800
     18 N9           0.7780    -5.1710    -3.9840 na         1 8NK      -0.097100
     19 C8           1.8920    -4.3950    -4.1290 cc         1 8NK      -0.060600
     20 N7           2.6280    -4.8570    -5.0980 na         1 8NK       0.106900
     21 CM7          3.8990    -4.2840    -5.5430 c3         1 8NK       0.022600
     22 C5           2.0320    -5.9530    -5.6310 cd         1 8NK      -0.439900
     23 C6           2.3640    -6.8430    -6.6780 c          1 8NK       0.800100
     24 O6           3.3900    -6.6970    -7.3210 o          1 8NK      -0.715500
     25 N1           1.5170    -7.8600    -6.9490 ns         1 8NK      -0.465400
     26 C2           0.3730    -8.0150    -6.2240 cd         1 8NK       0.045800
     27 N2          -0.4690    -9.0570    -6.5210 nz         1 8NK      -0.614600
     28 N3           0.0520    -7.1940    -5.2480 nc         1 8NK      -0.623100
     29 C4           0.8460    -6.1680    -4.9190 cc         1 8NK       0.190100
     30 H4           0.7460    -2.8280    -0.2010 h1         1 8NK       0.040200
     31 H5          -0.7660    -2.7390     0.7130 h1         1 8NK       0.040200
     32 H6          -2.0040    -3.4110    -1.3750 h1         1 8NK       0.086700
     33 H7          -0.2580    -5.0540     0.2720 h1         1 8NK       0.052700
     34 H8          -2.2360    -5.8260     0.4700 ho         1 8NK       0.402000
     35 H9           1.0160    -5.8800    -1.5050 h1         1 8NK       0.056700
     36 H10         -0.1540    -7.7520    -1.3160 ho         1 8NK       0.396000
     37 H11         -1.2590    -5.2030    -3.4320 h2         1 8NK       0.105700
     38 H12          2.1270    -3.5250    -3.5290 h5         1 8NK       0.235000
     39 H13          4.6850    -5.0220    -5.4380 h1         1 8NK       0.071033
     40 H14          4.1350    -3.4160    -4.9400 h1         1 8NK       0.071033
     41 H15          3.8180    -3.9900    -6.5830 h1         1 8NK       0.071033
     42 H16          1.7300    -8.5030    -7.6850 hn         1 8NK       0.297500
     43 H17         -0.0130    -9.9240    -6.3140 hn         1 8NK       0.392467
     44 H18         -1.3020    -8.9800    -5.9720 hn         1 8NK       0.392467
     45 H23         -0.7060    -9.0290    -7.4930 hn         1 8NK       0.392467
@<TRIPOS>BOND
     1    16    15 1   
     2    14    13 1   
     3    27    26 1   
     4    15    13 1   
     5    15    17 1   
     6    28    26 2   
     7    28    29 1   
     8    26    25 1   
     9    13    11 1   
    10    17    12 1   
    11    17    18 1   
    12    11    12 1   
    13    11    10 1   
    14    25    23 1   
    15    29    18 1   
    16    29    22 2   
    17    18    19 2   
    18    10     5 1   
    19    22    23 1   
    20    22    20 1   
    21    23    24 2   
    22    19    20 1   
    23     5     1 1   
    24    20    21 1   
    25     1     4 1   
    26     1     2 1   
    27     1     3 1   
    28     4     6 1   
    29     7     6 1   
    30     6     8 1   
    31     6     9 1   
    32    10    30 1   
    33    10    31 1   
    34    11    32 1   
    35    13    33 1   
    36    14    34 1   
    37    15    35 1   
    38    16    36 1   
    39    17    37 1   
    40    19    38 1   
    41    21    39 1   
    42    21    40 1   
    43    21    41 1   
    44    25    42 1   
    45    27    43 1   
    46    27    44 1   
    47    45    27 1   
@<TRIPOS>SUBSTRUCTURE
     1 8NK         1 TEMP              0 ****  ****    0 ROOT
