@<TRIPOS>MOLECULE
molecule
   51    53     1     0     0
SMALL
bcc


@<TRIPOS>ATOM
      1 C            0.0000     0.0000     0.0000 c3         1 8NL      -0.056800
      2 C8          -0.1520     0.9600     3.8320 ca         1 8NL      -0.115500
      3 C9          -1.3290     0.9430     4.5530 ca         1 8NL      -0.129500
      4 C10         -2.2550    -0.0650     4.3480 ca         1 8NL      -0.126000
      5 C11         -2.0080    -1.0590     3.4200 ca         1 8NL      -0.129500
      6 C12         -0.8340    -1.0520     2.6920 ca         1 8NL      -0.115500
      7 O            3.8200     0.0170    -2.0250 os         1 8NL      -0.424900
      8 Cl           7.9670    -1.6630    -8.1620 cl         1 8NL      -0.068400
      9 C21          6.6170    -0.8590    -7.4250 c2         1 8NL      -0.109800
     10 C22          5.4620    -0.3950    -8.2740 c3         1 8NL       0.673100
     11 F2           5.1190     0.9140    -7.9210 f          1 8NL      -0.213300
     12 F1           5.8290    -0.4340    -9.6240 f          1 8NL      -0.213300
     13 F            4.3640    -1.2360    -8.0660 f          1 8NL      -0.213300
     14 C16          5.4540     0.0890    -5.4970 cx         1 8NL      -0.090500
     15 C17          5.7840     1.3430    -4.6860 cx         1 8NL      -0.069000
     16 C18          4.7820     2.4990    -4.7340 c3         1 8NL      -0.065600
     17 C19          7.2550     1.7490    -4.5800 c3         1 8NL      -0.065600
     18 C15          5.3510     0.0620    -3.9710 cx         1 8NL      -0.176700
     19 C14          3.9610     0.0280    -3.3600 c          1 8NL       0.670100
     20 O1           2.9850     0.0340    -4.0710 o          1 8NL      -0.546000
     21 C2           2.5030     0.0000     0.0000 ca         1 8NL      -0.098300
     22 C3           3.7190     0.0000     0.6600 ca         1 8NL      -0.103000
     23 C4           3.7610    -0.0130     2.0420 ca         1 8NL      -0.136000
     24 C5           2.5900    -0.0240     2.7710 ca         1 8NL      -0.109000
     25 C6           1.3620    -0.0240     2.1130 cp         1 8NL      -0.039000
     26 C1           1.3250    -0.0060     0.7190 ca         1 8NL      -0.062300
     27 C7           0.1000    -0.0370     2.8910 cp         1 8NL      -0.040000
     28 H1           0.0830     0.5900    -0.9040 hc         1 8NL       0.049367
     29 H2          -0.7580     0.4300     0.6430 hc         1 8NL       0.049367
     30 H3          -0.2770    -1.0160    -0.2560 hc         1 8NL       0.049367
     31 H4           0.5710     1.7500     3.9930 ha         1 8NL       0.135500
     32 H5          -1.5270     1.7180     5.2830 ha         1 8NL       0.131000
     33 H6          -3.1770    -0.0740     4.9160 ha         1 8NL       0.129000
     34 H7          -2.7350    -1.8470     3.2650 ha         1 8NL       0.131000
     35 H8          -0.6430    -1.8310     1.9640 ha         1 8NL       0.135500
     36 H9           1.9440    -0.8700    -1.8610 h1         1 8NL       0.062200
     37 H10          1.9430     0.8990    -1.8470 h1         1 8NL       0.062200
     38 H13          3.8290     2.1360    -5.0990 hc         1 8NL       0.048867
     39 H14          4.6560     2.9080    -3.7390 hc         1 8NL       0.048867
     40 H15          5.1530     3.2710    -5.3970 hc         1 8NL       0.048867
     41 H16          7.8320     0.9180    -4.1900 hc         1 8NL       0.048867
     42 H17          7.3490     2.5970    -3.9130 hc         1 8NL       0.048867
     43 H18          7.6270     2.0180    -5.5610 hc         1 8NL       0.048867
     44 H19          6.1500    -0.4710    -3.4710 hc         1 8NL       0.103700
     45 H20          4.6410     0.0090     0.0910 ha         1 8NL       0.146000
     46 H21          4.7170    -0.0130     2.5530 ha         1 8NL       0.132000
     47 H22          2.6250    -0.0360     3.8540 ha         1 8NL       0.136000
     48 H11          7.4350    -0.9860    -5.5190 ha         1 8NL       0.156000
     49 H12          4.5030     0.1200    -6.0140 hc         1 8NL       0.129700
     50 C13          2.4630     0.0120    -1.5060 c3         1 8NL       0.199700
     51 C20          6.6040    -0.6540    -6.1290 c2         1 8NL      -0.056200
@<TRIPOS>BOND
     1    16    15 1
     2    12    10 1
     3     8     9 1
     4    51     9 2
     5    51    14 1
     6     9    10 1
     7    13    10 1
     8    14    15 1
     9    14    18 1
    10    20    19 2
    11    10    11 1
    12    15    17 1
    13    15    18 1
    14    19    18 1
    15    19     7 1
    16     7    50 1
    17    50    21 1
    18     1    26 1
    19    21    26 ar
    20    21    22 ar
    21    26    25 ar
    22    22    23 ar
    23    25    27 1
    24    25    24 ar
    25    23    24 ar
    26    27     2 ar
    27    27     6 ar
    28     2     3 ar
    29     6     5 ar
    30     3     4 ar
    31     5     4 ar
    32     1    28 1
    33     1    29 1
    34     1    30 1
    35     2    31 1
    36     3    32 1
    37     4    33 1
    38     5    34 1
    39     6    35 1
    40    50    36 1
    41    50    37 1
    42    16    38 1
    43    16    39 1
    44    16    40 1
    45    17    41 1
    46    17    42 1
    47    17    43 1
    48    18    44 1
    49    22    45 1
    50    23    46 1
    51    24    47 1
    52    51    48 1
    53    14    49 1
@<TRIPOS>SUBSTRUCTURE
     1 8NL         1 TEMP              0 ****  ****    0 ROOT
