@<TRIPOS>MOLECULE
molecule
   48    51     1     0     0
SMALL
bcc


@<TRIPOS>ATOM
      1 C4           0.0000     0.0000     0.0000 ca         1 8NM      -0.123000
      2 C5           4.3950     1.2170    -0.6100 ca         1 8NM      -0.136000
      3 C6           4.4000    -1.1850    -0.6300 ca         1 8NM      -0.136000
      4 C7           1.3820     0.0000     0.0000 ca         1 8NM      -0.194000
      5 C8           1.7250     2.5320     4.3720 cc         1 8NM      -0.205000
      6 C10          2.1310     3.2330     5.4500 cd         1 8NM      -0.117300
      7 C13         -0.7000    -0.0010     1.2010 ca         1 8NM       0.088600
      8 C15          2.0770     0.0000     1.1980 ca         1 8NM       0.140100
      9 C17          2.7270    -1.1320     4.1420 cd         1 8NM      -0.011400
     10 C20          4.0490    -2.3840     5.7610 c3         1 8NM       0.094300
     11 C21         -2.5090    -2.6790     0.7620 c3         1 8NM      -0.245300
     12 C1           5.3670     0.0330    -2.4500 ca         1 8NM      -0.127000
     13 C2           5.0420     1.2260    -1.8310 ca         1 8NM      -0.119500
     14 C3           5.0460    -1.1700    -1.8510 ca         1 8NM      -0.119500
     15 C9          -0.0140    -0.0010     2.4060 ca         1 8NM      -0.100000
     16 C11          2.2100     1.2170     4.5070 cc         1 8NM      -0.048800
     17 C12          1.3790    -0.0010     2.4100 ca         1 8NM      -0.048800
     18 C14          4.0720     0.0110    -0.0060 ca         1 8NM       0.094100
     19 C16          2.9210     1.1670     5.7120 cd         1 8NM      -0.191900
     20 C18          2.1200    -0.0030     3.6940 cc         1 8NM      -0.062400
     21 C19          3.5180    -0.0470     6.0980 c          1 8NM       0.729100
     22 N22          2.8540     2.4230     6.2710 na         1 8NM      -0.123100
     23 N23          3.4100    -1.1410     5.3230 n          1 8NM      -0.329000
     24 N24         -2.0990     0.0000     1.1940 nu         1 8NM      -0.768500
     25 O25          4.1420    -0.1080     7.1450 o          1 8NM      -0.672500
     26 O26         -2.3430    -0.7760    -1.1000 o          1 8NM      -0.628800
     27 O27         -4.2920    -0.7230     0.4230 o          1 8NM      -0.628800
     28 O28          3.4370    -0.0010     1.1950 os         1 8NM      -0.240200
     29 S29         -2.9220    -1.0130     0.1750 s6         1 8NM       1.326900
     30 H4          -0.5400     0.0000    -0.9390 ha         1 8NM       0.187000
     31 H6           4.1490    -2.1290    -0.1610 ha         1 8NM       0.144000
     32 H7           1.9220     0.0010    -0.9390 ha         1 8NM       0.154000
     33 H8           1.1330     2.9130     3.5480 ha         1 8NM       0.156000
     34 H10          1.9140     4.2790     5.6350 h4         1 8NM       0.170000
     35 H17          2.6670    -2.0400     3.5540 h4         1 8NM       0.157000
     36 H202         3.8590    -3.1640     5.0330 h1         1 8NM       0.052700
     37 H203         5.1170    -2.2280     5.8520 h1         1 8NM       0.052700
     38 H201         3.6440    -2.6790     6.7210 h1         1 8NM       0.052700
     39 H1           5.8740     0.0420    -3.4070 ha         1 8NM       0.134000
     40 H2           5.2950     2.1680    -2.3030 ha         1 8NM       0.136000
     41 H3           5.3020    -2.1030    -2.3390 ha         1 8NM       0.136000
     42 H9          -0.5600    -0.0020     3.3410 ha         1 8NM       0.147000
     43 H22          3.2700     2.6960     7.1400 hn         1 8NM       0.311700
     44 H11         -3.3270    -3.3540     0.5390 h1         1 8NM       0.100700
     45 H12         -2.3420    -2.6550     1.8320 h1         1 8NM       0.100700
     46 H13         -1.6100    -3.0250     0.2650 h1         1 8NM       0.100700
     47 H14         -2.6020     0.6400     1.7770 hn         1 8NM       0.465800
     48 H5           4.1400     2.1520    -0.1250 ha         1 8NM       0.144000
@<TRIPOS>BOND
     1     1     4 ar
     2     1     7 ar
     3     2    13 ar
     4     2    18 ar
     5     3    14 ar
     6     3    18 ar
     7     4     8 ar
     8     5     6 2
     9     5    16 1
    10     6    22 1
    11     7    15 ar
    12     7    24 1
    13     8    17 ar
    14     8    28 1
    15     9    20 2
    16     9    23 1
    17    10    23 1
    18    11    29 1
    19    12    13 ar
    20    12    14 ar
    21    15    17 ar
    22    16    19 2
    23    16    20 1
    24    17    20 1
    25    18    28 1
    26    19    21 1
    27    19    22 1
    28    21    23 1
    29    21    25 2
    30    24    29 1
    31    26    29 2
    32    27    29 2
    33     1    30 1
    34     2    48 1
    35     3    31 1
    36     4    32 1
    37     5    33 1
    38     6    34 1
    39     9    35 1
    40    10    36 1
    41    10    37 1
    42    10    38 1
    43    12    39 1
    44    13    40 1
    45    14    41 1
    46    15    42 1
    47    22    43 1
    48    11    44 1
    49    11    45 1
    50    11    46 1
    51    24    47 1
@<TRIPOS>SUBSTRUCTURE
     1 8NM         1 TEMP              0 ****  ****    0 ROOT
