@<TRIPOS>MOLECULE
molecule
   44    47     1     0     0
SMALL
bcc


@<TRIPOS>ATOM
      1 C24          0.0000     0.0000     0.0000 cc         1 8NN      -0.119100
      2 C19          2.2390    -0.0000    -1.2120 c3         1 8NN      -0.007200
      3 C20          1.3430     0.0000     0.0000 cd         1 8NN      -0.123400
      4 C21          1.7700     0.0000     1.4010 ca         1 8NN      -0.094800
      5 C16          3.4390    -1.4490    -2.8270 c          1 8NN       0.884600
      6 C10          4.3920    -5.2360     1.0290 ca         1 8NN       0.053800
      7 C01          6.7860    -6.6280     4.1600 ca         1 8NN      -0.133000
      8 C02          6.0900    -7.5360     3.3670 ca         1 8NN      -0.125000
      9 C03          5.3020    -7.1090     2.3400 ca         1 8NN      -0.108000
     10 C04          5.1920    -5.7370     2.0790 ca         1 8NN      -0.051000
     11 C05          5.9000    -4.8110     2.8870 ca         1 8NN      -0.134300
     12 C06          6.7010    -5.2860     3.9340 ca         1 8NN      -0.104000
     13 C07          5.7780    -3.4340     2.6110 ca         1 8NN       0.518300
     14 N08          5.0230    -3.0210     1.6240 nb         1 8NN      -0.655000
     15 C09          4.3420    -3.8580     0.8350 ca         1 8NN       0.388800
     16 O13          2.8920    -4.0620    -0.9830 o          1 8NN      -0.600100
     17 N14          3.4620    -1.9790    -0.4590 ns         1 8NN      -0.517900
     18 C15          2.6440    -1.4360    -1.5470 c3         1 8NN       0.009700
     19 O17          2.8870    -0.9940    -3.9640 o          1 8NN      -0.838800
     20 O18          4.5720    -1.8680    -2.8320 o          1 8NN      -0.838800
     21 C22          0.5910    -0.0000     2.1680 ca         1 8NN      -0.043200
     22 N23         -0.4660     0.0050     1.2860 na         1 8NN      -0.192400
     23 C25          0.6800     0.0000     3.5560 ca         1 8NN      -0.157000
     24 C26          1.9180    -0.0010     4.1620 ca         1 8NN      -0.119000
     25 C27          3.0790     0.0000     3.4000 ca         1 8NN      -0.169000
     26 C28          3.0140    -0.0010     2.0360 ca         1 8NN      -0.062000
     27 H1          -0.6220    -0.0030    -0.8870 h4         1 8NN       0.169000
     28 H2           3.1260     0.5860    -1.0050 hc         1 8NN       0.062700
     29 H3           1.7090     0.4310    -2.0520 hc         1 8NN       0.062700
     30 H4           4.2770    -6.4650    -0.4040 ho         1 8NN       0.429000
     31 H5           7.4060    -6.9930     4.9710 ha         1 8NN       0.124000
     32 H6           6.1770    -8.5970     3.5690 ha         1 8NN       0.125000
     33 H7           4.7660    -7.8260     1.7300 ha         1 8NN       0.144000
     34 H8           7.2480    -4.5920     4.5600 ha         1 8NN       0.143000
     35 H9           4.0210    -1.3660     0.1000 hn         1 8NN       0.317500
     36 H10          1.7550    -2.0430    -1.6680 h1         1 8NN       0.076700
     37 H12         -1.4330     0.0070     1.5470 hn         1 8NN       0.282700
     38 H13         -0.2200    -0.0010     4.1590 ha         1 8NN       0.111000
     39 H14          1.9860     0.0000     5.2430 ha         1 8NN       0.114000
     40 H15          4.0440    -0.0000     3.8910 ha         1 8NN       0.122000
     41 H16          3.9240     0.0000     1.4480 ha         1 8NN       0.139000
     42 C12          3.5190    -3.3110    -0.2610 c          1 8NN       0.570600
     43 O11          3.6940    -6.0750     0.2260 oh         1 8NN      -0.478100
     44 Cl1          6.6340    -2.2790     3.5840 cl         1 8NN      -0.173000
@<TRIPOS>BOND
     1    24    25 ar  
     2    24    23 ar  
     3    25    26 ar  
     4    23    21 ar  
     5    26     4 ar  
     6    43     6 1   
     7     9     8 ar  
     8     9    10 ar  
     9    21     4 ar  
    10    21    22 1   
    11     4     3 1   
    12     8     7 ar  
    13    22     1 1   
    14     3     2 1   
    15     3     1 2   
    16     2    18 1   
    17     6    10 ar  
    18     6    15 ar  
    19    16    42 2   
    20    10    11 ar  
    21     7    12 ar  
    22    42    15 1   
    23    42    17 1   
    24    15    14 ar  
    25    11    12 ar  
    26    11    13 ar  
    27    18    17 1   
    28    18     5 1   
    29    14    13 ar  
    30    13    44 1   
    31     5    20 1   
    32     5    19 1   
    33     1    27 1   
    34     2    28 1   
    35     2    29 1   
    36    43    30 1   
    37     7    31 1   
    38     8    32 1   
    39     9    33 1   
    40    12    34 1   
    41    17    35 1   
    42    18    36 1   
    43    22    37 1   
    44    23    38 1   
    45    24    39 1   
    46    25    40 1   
    47    26    41 1   
@<TRIPOS>SUBSTRUCTURE
     1 8NN         1 TEMP              0 ****  ****    0 ROOT
