@<TRIPOS>MOLECULE
molecule
   46    48     1     0     0
SMALL
bcc


@<TRIPOS>ATOM
      1 O8           0.0000     0.0000     0.0000 o          1 8NO      -0.396100
      2 C7           1.2150     0.0000     0.0000 c          1 8NO       0.503700
      3 N9           1.8900     0.0000     1.1670 nz         1 8NO      -0.678400
      4 C5           1.9520    -0.0070    -1.2780 ca         1 8NO      -0.231600
      5 C6           3.3440    -0.1220    -1.2850 ca         1 8NO      -0.111000
      6 C1           4.0270    -0.1270    -2.4830 ca         1 8NO      -0.116000
      7 C4           1.2590     0.0980    -2.4930 ca         1 8NO       0.267600
      8 C3           1.9650     0.0920    -3.6900 ca         1 8NO      -0.130000
      9 C2           3.3400    -0.0170    -3.6800 ca         1 8NO      -0.047000
     10 N10         -0.1260     0.2090    -2.5000 nu         1 8NO      -0.721000
     11 C11         -0.7290     1.4500    -2.2850 ca         1 8NO       0.216600
     12 C16         -2.1140     1.5610    -2.2890 ca         1 8NO      -0.218000
     13 C15         -2.7080     2.7950    -2.0750 ca         1 8NO       0.199100
     14 C14         -1.9200     3.9150    -1.8570 ca         1 8NO      -0.254000
     15 C13         -0.5420     3.8030    -1.8530 ca         1 8NO      -0.046000
     16 C12          0.0540     2.5760    -2.0590 ca         1 8NO      -0.262000
     17 O11         -4.0620     2.9060    -2.0790 os         1 8NO      -0.324900
     18 C17         -4.6070     4.2070    -1.8510 c3         1 8NO       0.138400
     19 C18         -6.1340     4.1360    -1.8930 c3         1 8NO      -0.032100
     20 C24         -6.7090     5.5080    -1.6520 ca         1 8NO      -0.098300
     21 C23         -6.9880     5.9250    -0.3640 ca         1 8NO      -0.122000
     22 C22         -7.5150     7.1840    -0.1440 ca         1 8NO      -0.123500
     23 C21         -7.7630     8.0260    -1.2120 ca         1 8NO      -0.120000
     24 C20         -7.4820     7.6090    -2.5000 ca         1 8NO      -0.123500
     25 C19         -6.9500     6.3530    -2.7200 ca         1 8NO      -0.122000
     26 H1           2.5240     0.7740     1.1860 hn         1 8NO       0.475133
     27 H2           1.2430     0.0810     1.9260 hn         1 8NO       0.475133
     28 H3           3.8860    -0.2090    -0.3510 ha         1 8NO       0.111000
     29 H4           5.1060    -0.2150    -2.4870 ha         1 8NO       0.162000
     30 H5           1.4350     0.1750    -4.6320 ha         1 8NO       0.178000
     31 H6           3.8870    -0.0220    -4.6160 ha         1 8NO       0.167000
     32 H7          -0.6920    -0.6020    -2.6610 hn         1 8NO       0.471800
     33 H8          -2.7280     0.6850    -2.4590 ha         1 8NO       0.151000
     34 H9          -2.3840     4.8790    -1.6920 ha         1 8NO       0.149000
     35 H10          0.0710     4.6790    -1.6790 ha         1 8NO       0.137000
     36 H11          1.1340     2.4910    -2.0560 ha         1 8NO       0.118000
     37 H12         -4.2560     4.8850    -2.6190 h1         1 8NO       0.043200
     38 H13         -4.2890     4.5670    -0.8800 h1         1 8NO       0.043200
     39 H14         -6.4850     3.4580    -1.1240 hc         1 8NO       0.064200
     40 H15         -6.4530     3.7760    -2.8640 hc         1 8NO       0.064200
     41 H16         -6.7940     5.2650     0.4730 ha         1 8NO       0.130500
     42 H17         -7.7350     7.5110     0.8660 ha         1 8NO       0.135000
     43 H18         -8.1780     9.0120    -1.0400 ha         1 8NO       0.136000
     44 H19         -7.6740     8.2700    -3.3370 ha         1 8NO       0.135000
     45 H20         -6.7310     6.0270    -3.7290 ha         1 8NO       0.130500
     46 H93          2.3980    -0.8570     1.2580 hn         1 8NO       0.475133
@<TRIPOS>BOND
     1     3     2 1   
     2     1     2 2   
     3     2     4 1   
     4     4     5 ar  
     5     4     7 ar  
     6     5     6 ar  
     7    10     7 1   
     8    10    11 1   
     9     7     8 ar  
    10     6     9 ar  
    11    11    12 ar  
    12    11    16 ar  
    13    12    13 ar  
    14     8     9 ar  
    15    16    15 ar  
    16    13    17 1   
    17    13    14 ar  
    18    17    18 1   
    19    15    14 ar  
    20    22    21 ar  
    21    22    23 ar  
    22    21    20 ar  
    23    23    24 ar  
    24    20    19 1   
    25    20    25 ar  
    26    24    25 ar  
    27    18    19 1   
    28     3    26 1   
    29     3    27 1   
    30     5    28 1   
    31     6    29 1   
    32     8    30 1   
    33     9    31 1   
    34    10    32 1   
    35    12    33 1   
    36    14    34 1   
    37    15    35 1   
    38    16    36 1   
    39    18    37 1   
    40    18    38 1   
    41    19    39 1   
    42    19    40 1   
    43    21    41 1   
    44    22    42 1   
    45    23    43 1   
    46    24    44 1   
    47    25    45 1   
    48    46     3 1   
@<TRIPOS>SUBSTRUCTURE
     1 8NO         1 TEMP              0 ****  ****    0 ROOT
