@<TRIPOS>MOLECULE
8NO
   46    48     1     0     0
SMALL
bcc


@<TRIPOS>ATOM
      1 O8           0.0000     0.0000     0.0000 o          1 8NO      -0.417100
      2 C7           1.2150     0.0000     0.0000 c          1 8NO       0.353700
      3 N9           1.8900     0.0000     1.1670 nz         1 8NO       0.197600
      4 C5           1.9520    -0.0070    -1.2780 ca         1 8NO      -0.250600
      5 C6           3.3440    -0.1220    -1.2850 ca         1 8NO      -0.081000
      6 C1           4.0270    -0.1270    -2.4830 ca         1 8NO      -0.078000
      7 C4           1.2590     0.0980    -2.4930 ca         1 8NO       0.142600
      8 C3           1.9650     0.0920    -3.6900 ca         1 8NO      -0.099000
      9 C2           3.3400    -0.0170    -3.6800 ca         1 8NO      -0.006000
     10 N10         -0.1260     0.2090    -2.5000 nu         1 8NO      -0.293000
     11 C11         -0.7290     1.4500    -2.2850 ca         1 8NO       0.077600
     12 C16         -2.1140     1.5610    -2.2890 ca         1 8NO      -0.203000
     13 C15         -2.7080     2.7950    -2.0750 ca         1 8NO       0.213100
     14 C14         -1.9200     3.9150    -1.8570 ca         1 8NO      -0.246000
     15 C13         -0.5420     3.8030    -1.8530 ca         1 8NO      -0.005000
     16 C12          0.0540     2.5760    -2.0590 ca         1 8NO      -0.255000
     17 O11         -4.0620     2.9060    -2.0790 os         1 8NO      -0.302900
     18 C17         -4.6070     4.2070    -1.8510 c3         1 8NO       0.201400
     19 C18         -6.1340     4.1360    -1.8930 c3         1 8NO       0.029900
     20 C24         -6.7090     5.5080    -1.6520 ca         1 8NO      -0.103300
     21 C23         -6.9880     5.9250    -0.3640 ca         1 8NO      -0.096500
     22 C22         -7.5150     7.1840    -0.1440 ca         1 8NO      -0.095000
     23 C21         -7.7630     8.0260    -1.2120 ca         1 8NO      -0.094000
     24 C20         -7.4820     7.6090    -2.5000 ca         1 8NO      -0.095000
     25 C19         -6.9500     6.3530    -2.7200 ca         1 8NO      -0.096500
     26 H1           2.5240     0.7740     1.1860 hn         1 8NO       0.245467
     27 H2           1.2430     0.0810     1.9260 hn         1 8NO       0.245467
     28 H3           3.8860    -0.2090    -0.3510 ha         1 8NO       0.082000
     29 H4           5.1060    -0.2150    -2.4870 ha         1 8NO       0.128000
     30 H5           1.4350     0.1750    -4.6320 ha         1 8NO       0.141000
     31 H6           3.8870    -0.0220    -4.6160 ha         1 8NO       0.127000
     32 H7          -0.6920    -0.6020    -2.6610 hn         1 8NO       0.313800
     33 H8          -2.7280     0.6850    -2.4590 ha         1 8NO       0.128000
     34 H9          -2.3840     4.8790    -1.6920 ha         1 8NO       0.134000
     35 H10          0.0710     4.6790    -1.6790 ha         1 8NO       0.103000
     36 H11          1.1340     2.4910    -2.0560 ha         1 8NO       0.103000
     37 H12         -4.2560     4.8850    -2.6190 h1         1 8NO       0.007200
     38 H13         -4.2890     4.5670    -0.8800 h1         1 8NO       0.007200
     39 H14         -6.4850     3.4580    -1.1240 hc         1 8NO       0.029200
     40 H15         -6.4530     3.7760    -2.8640 hc         1 8NO       0.029200
     41 H16         -6.7940     5.2650     0.4730 ha         1 8NO       0.105500
     42 H17         -7.7350     7.5110     0.8660 ha         1 8NO       0.106500
     43 H18         -8.1780     9.0120    -1.0400 ha         1 8NO       0.107000
     44 H19         -7.6740     8.2700    -3.3370 ha         1 8NO       0.106500
     45 H20         -6.7310     6.0270    -3.7290 ha         1 8NO       0.105500
     46 H93          2.3980    -0.8570     1.2580 hn         1 8NO       0.245467
@<TRIPOS>BOND
     1     1     2 2   
     2     2     3 1   
     3     2     4 1   
     4     3    26 1   
     5     3    27 1   
     6     3    46 1   
     7     4     5 ar  
     8     4     7 ar  
     9     5     6 ar  
    10     5    28 1   
    11     6     9 ar  
    12     6    29 1   
    13     7     8 ar  
    14     7    10 1   
    15     8     9 ar  
    16     8    30 1   
    17     9    31 1   
    18    10    11 1   
    19    10    32 1   
    20    11    12 ar  
    21    11    16 ar  
    22    12    13 ar  
    23    12    33 1   
    24    13    14 ar  
    25    13    17 1   
    26    14    15 ar  
    27    14    34 1   
    28    15    16 ar  
    29    15    35 1   
    30    16    36 1   
    31    17    18 1   
    32    18    19 1   
    33    18    37 1   
    34    18    38 1   
    35    19    20 1   
    36    19    39 1   
    37    19    40 1   
    38    20    21 ar  
    39    20    25 ar  
    40    21    22 ar  
    41    21    41 1   
    42    22    23 ar  
    43    22    42 1   
    44    23    24 ar  
    45    23    43 1   
    46    24    25 ar  
    47    24    44 1   
    48    25    45 1   
@<TRIPOS>SUBSTRUCTURE
     1 8NO         1 TEMP              0 ****  ****    0 ROOT
