@<TRIPOS>MOLECULE
molecule
   36    38     1     0     0
SMALL
bcc


@<TRIPOS>ATOM
      1 C4           0.0000     0.0000     0.0000 ca         1 8NP      -0.116500
      2 C5           4.0070     3.3750    -0.0170 ca         1 8NP      -0.090000
      3 C6           6.1140     2.2470     0.1550 ca         1 8NP      -0.083000
      4 C7           1.3780    -0.0100     2.4020 ca         1 8NP      -0.141000
      5 C8           1.3810     0.0000     0.0000 ca         1 8NP      -0.141000
      6 C10          5.4650     1.1030     0.6100 ca         1 8NP      -0.069800
      7 C13          6.7820    -0.9220    -0.0720 cc         1 8NP      -0.037000
      8 C15          6.2470    -0.1120     0.9520 cc         1 8NP      -0.130200
      9 C17          7.6770    -2.3520     1.6210 c          1 8NP       0.685700
     10 C1          -0.6920    -0.0000     1.1970 ca         1 8NP      -0.132000
     11 C2           5.3830     3.3750    -0.1610 ca         1 8NP      -0.164000
     12 C3          -0.0030    -0.0050     2.3970 ca         1 8NP      -0.116500
     13 C9           3.3540     2.2480     0.4450 ca         1 8NP      -0.209000
     14 C11          2.0740     0.0000     1.2020 ca         1 8NP       0.100100
     15 C12          4.0760     1.1080     0.7610 ca         1 8NP       0.145100
     16 C14          6.4530    -0.4480     2.2590 cd         1 8NP       0.015600
     17 C16          7.4910    -2.0350     0.2640 cd         1 8NP      -0.213400
     18 C18          8.0610    -2.9260    -0.8100 c3         1 8NP      -0.022900
     19 N19          7.1670    -1.5560     2.5800 ns         1 8NP      -0.405100
     20 O20          8.3170    -3.3440     1.9320 o          1 8NP      -0.659500
     21 O21          3.4340    -0.0040     1.2040 os         1 8NP      -0.242200
     22 H1          -0.5420     0.0020    -0.9380 ha         1 8NP       0.136000
     23 H2           3.4390     4.2630    -0.2650 ha         1 8NP       0.133000
     24 H3           7.1920     2.2510     0.0410 ha         1 8NP       0.141000
     25 H4           1.9170    -0.0120     3.3420 ha         1 8NP       0.144500
     26 H5           1.9230     0.0040    -0.9380 ha         1 8NP       0.144500
     27 H7          -1.7750     0.0020     1.1960 ha         1 8NP       0.134000
     28 H8           5.8890     4.2630    -0.5190 ha         1 8NP       0.134000
     29 H9          -0.5480    -0.0090     3.3340 ha         1 8NP       0.136000
     30 H10          2.2760     2.2550     0.5580 ha         1 8NP       0.148000
     31 H11          6.0510     0.1790     3.0450 h4         1 8NP       0.158000
     32 H13          9.1380    -2.9770    -0.7020 hc         1 8NP       0.046367
     33 H14          7.8150    -2.5210    -1.7840 hc         1 8NP       0.046367
     34 H15          7.6410    -3.9200    -0.7150 hc         1 8NP       0.046367
     35 H12          7.3080    -1.7900     3.5430 hn         1 8NP       0.336500
     36 H6           6.6280    -0.6630    -1.1130 ha         1 8NP       0.141000
@<TRIPOS>BOND
     1    18    17 1   
     2    20     9 2   
     3    17     9 1   
     4    17     7 2   
     5     9    19 1   
     6     7     8 1   
     7    19    16 1   
     8     3    11 ar  
     9     3     6 ar  
    10     8    16 2   
    11     8     6 1   
    12    11     2 ar  
    13     6    15 ar  
    14     2    13 ar  
    15    15    13 ar  
    16    15    21 1   
    17    21    14 1   
    18    14     4 ar  
    19    14     5 ar  
    20     4    12 ar  
    21     5     1 ar  
    22    12    10 ar  
    23     1    10 ar  
    24     1    22 1   
    25     2    23 1   
    26     3    24 1   
    27     4    25 1   
    28     5    26 1   
    29     7    36 1   
    30    10    27 1   
    31    11    28 1   
    32    12    29 1   
    33    13    30 1   
    34    16    31 1   
    35    18    32 1   
    36    18    33 1   
    37    18    34 1   
    38    19    35 1   
@<TRIPOS>SUBSTRUCTURE
     1 8NP         1 TEMP              0 ****  ****    0 ROOT
