@<TRIPOS>MOLECULE
8NQ
   51    55     1     0     0
SMALL
bcc


@<TRIPOS>ATOM
      1 C4           0.0000     0.0000     0.0000 cx         1 8NQ      -0.118700
      2 C14          6.9550    -1.6760    -3.3270 ca         1 8NQ      -0.117900
      3 C5           1.5400     0.0000     0.0000 cx         1 8NQ      -0.129300
      4 C6           0.7480     0.0000     1.3360 cx         1 8NQ      -0.011400
      5 C11          5.6400    -0.6670    -5.5350 ca         1 8NQ      -0.061000
      6 C8           4.2260    -0.5000    -1.2210 c3         1 8NQ      -0.133700
      7 C9           5.7120    -1.0310    -3.1700 ca         1 8NQ      -0.266200
      8 C10          5.0620    -0.5280    -4.2930 ca         1 8NQ      -0.047000
      9 C12          6.8650    -1.3040    -5.6810 ca         1 8NQ      -0.060000
     10 C13          7.5210    -1.8060    -4.5910 ca         1 8NQ      -0.059000
     11 N1           1.9720    -1.2880    -0.5730 n          1 8NQ      -0.064800
     12 N2           5.4330    -1.0650    -1.8300 na         1 8NQ       0.720900
     13 C3          -0.4030    -1.3700    -0.5940 c3         1 8NQ       0.018600
     14 C1           0.9220    -3.3810    -1.3180 c          1 8NQ       0.533100
     15 C2           0.8580    -2.2360    -0.3410 c3         1 8NQ      -0.060300
     16 C15          7.3390    -2.0620    -1.9630 cc         1 8NQ       0.160900
     17 C16          8.5680    -2.7670    -1.5560 c          1 8NQ       0.310800
     18 O2           9.3880    -3.0900    -2.3940 o          1 8NQ      -0.458100
     19 N4           6.3670    -1.6550    -1.1740 nd         1 8NQ      -0.616100
     20 O3           3.3300    -2.6310    -1.7020 o          1 8NQ      -0.592100
     21 N5           0.5260    -4.6120    -0.9400 ns         1 8NQ      -0.110400
     22 C17          0.6830    -5.6920    -1.8080 ca         1 8NQ       0.357200
     23 C18          0.1720    -6.9360    -1.4580 ca         1 8NQ      -0.262300
     24 C19          0.3330    -8.0000    -2.3290 ca         1 8NQ      -0.033000
     25 C20          1.0030    -7.7810    -3.5240 ca         1 8NQ      -0.212300
     26 C21          1.4850    -6.5180    -3.8080 ca         1 8NQ       0.493500
     27 Br1          2.3990    -6.2100    -5.4350 br         1 8NQ      -0.195200
     28 N6           1.3120    -5.5210    -2.9590 nb         1 8NQ      -0.514000
     29 H1          -0.4140     0.9240    -0.3860 hc         1 8NQ       0.079700
     30 H2           1.9530     0.9320    -0.3670 h1         1 8NQ       0.080700
     31 H3           0.7420     0.9390     1.8750 hc         1 8NQ       0.054200
     32 H4           0.7420    -0.9390     1.8750 hc         1 8NQ       0.054200
     33 H6           4.4480    -0.1740    -0.2120 h1         1 8NQ       0.065700
     34 H7           3.8880     0.3460    -1.8070 h1         1 8NQ       0.065700
     35 H9           7.3040    -1.4050    -6.6660 ha         1 8NQ       0.120000
     36 H10          8.4760    -2.3020    -4.7120 ha         1 8NQ       0.125000
     37 H11         -0.6000    -1.2840    -1.6560 hc         1 8NQ       0.042200
     38 H12         -1.2580    -1.7780    -0.0690 hc         1 8NQ       0.042200
     39 H13          9.6450    -3.5530    -0.1640 hn         1 8NQ       0.242467
     40 H14          8.0320    -3.6210     0.0870 hn         1 8NQ       0.242467
     41 H15          0.8720    -2.5960     0.6810 h1         1 8NQ       0.041700
     42 H16          0.1120    -4.7500    -0.0390 hn         1 8NQ       0.169500
     43 H17         -0.3460    -7.0720    -0.5160 ha         1 8NQ       0.118000
     44 H18         -0.0620    -8.9670    -2.0430 ha         1 8NQ       0.116000
     45 H19          1.1460    -8.5920    -4.2280 ha         1 8NQ       0.130000
     46 C7           3.1450    -1.5500    -1.1830 c          1 8NQ       0.573100
     47 O1           1.3300    -3.1940    -2.4450 o          1 8NQ      -0.525100
     48 H5           5.1320    -0.2750    -6.4080 ha         1 8NQ       0.121000
     49 N3           8.7820    -3.0550    -0.2580 nz         1 8NQ       0.210600
     50 H33          8.8290    -2.2060     0.2690 hn         1 8NQ       0.242467
     51 H8           4.1060    -0.0290    -4.1910 ha         1 8NQ       0.117000
@<TRIPOS>BOND
     1     1     3 1   
     2     1     4 1   
     3     1    13 1   
     4     1    29 1   
     5     2     7 ar  
     6     2    10 ar  
     7     2    16 1   
     8     3     4 1   
     9     3    11 1   
    10     3    30 1   
    11     4    31 1   
    12     4    32 1   
    13     5     8 ar  
    14     5     9 ar  
    15     5    48 1   
    16     6    12 1   
    17     6    33 1   
    18     6    34 1   
    19     6    46 1   
    20     7     8 ar  
    21     7    12 1   
    22     8    51 1   
    23     9    10 ar  
    24     9    35 1   
    25    10    36 1   
    26    11    15 1   
    27    11    46 1   
    28    12    19 1   
    29    13    15 1   
    30    13    37 1   
    31    13    38 1   
    32    14    15 1   
    33    14    21 1   
    34    14    47 2   
    35    15    41 1   
    36    16    17 1   
    37    16    19 2   
    38    17    18 2   
    39    17    49 1   
    40    20    46 2   
    41    21    22 1   
    42    21    42 1   
    43    22    23 ar  
    44    22    28 ar  
    45    23    24 ar  
    46    23    43 1   
    47    24    25 ar  
    48    24    44 1   
    49    25    26 ar  
    50    25    45 1   
    51    26    27 1   
    52    26    28 ar  
    53    39    49 1   
    54    40    49 1   
    55    49    50 1   
@<TRIPOS>SUBSTRUCTURE
     1 8NQ         1 TEMP              0 ****  ****    0 ROOT
