@<TRIPOS>MOLECULE
8NR
   52    55     1     0     0
SMALL
bcc


@<TRIPOS>ATOM
      1 CAA          0.0000     0.0000     0.0000 ca         1 8NR      -0.084000
      2 CAB          1.3590     0.0000     0.0000 ca         1 8NR      -0.059000
      3 CAC          2.0760     0.0000     1.2070 ca         1 8NR      -0.138600
      4 CAD          1.4120    -0.0010     2.4220 ca         1 8NR      -0.127300
      5 CAE          0.0080    -0.0020     2.4430 ca         1 8NR       0.366600
      6 CAF         -0.7020    -0.0010     1.2160 ca         1 8NR      -0.139300
      7 CAH         -1.9830    -0.0060     3.6390 ca         1 8NR       0.400600
      8 CAI         -2.7370    -0.0000     2.4710 ca         1 8NR      -0.181600
      9 CAJ         -2.1070     0.0000     1.2520 ca         1 8NR      -0.067000
     10 CAK         -2.6220    -0.0160     5.0050 c3         1 8NR      -0.068700
     11 CAL         -4.0820     0.4260     4.9170 c3         1 8NR      -0.027400
     12 CAM         -4.7790    -0.4130     3.8400 c3         1 8NR      -0.028400
     13 CAN         -4.2430     0.0140     2.4760 c3         1 8NR       0.037900
     14 CAP          3.5550     0.0000     1.1810 c          1 8NR       0.623700
     15 CAS          5.6990     1.0510     1.8040 c3         1 8NR       0.022500
     16 CAT          6.0880     2.4780     1.3990 c3         1 8NR       0.040000
     17 CAV          3.9080     3.3420     2.3520 c3         1 8NR       0.040000
     18 CAW          3.5200     1.9150     2.7560 c3         1 8NR       0.022500
     19 CAX          6.0510     4.3480     2.9780 c          1 8NR       0.701100
     20 CBA          6.1780     6.1770     4.5050 c3         1 8NR       0.241400
     21 CBB          5.2540     7.0630     5.3450 c3         1 8NR      -0.005100
     22 NAG         -0.6650    -0.0050     3.5950 nb         1 8NR      -0.573000
     23 NAR          4.2330     0.9690     1.8860 n          1 8NR      -0.177800
     24 NAU          5.3740     3.4240     2.2700 n          1 8NR      -0.142800
     25 OAQ          4.1520    -0.8240     0.5160 o          1 8NR      -0.623100
     26 OAY          7.2620     4.4060     2.9010 o          1 8NR      -0.657000
     27 OAZ          5.3850     5.2090     3.7710 os         1 8NR      -0.427900
     28 H1          -0.5420     0.0000    -0.9380 ha         1 8NR       0.110000
     29 H2           1.8940     0.0010    -0.9420 ha         1 8NR       0.118000
     30 H3           1.9720    -0.0010     3.3490 ha         1 8NR       0.126000
     31 H4          -2.6710     0.2060     0.3510 ha         1 8NR       0.116000
     32 H5          -2.5780    -1.0190     5.4120 hc         1 8NR       0.031200
     33 H6          -2.0840     0.6630     5.6550 hc         1 8NR       0.031200
     34 H7          -4.1290     1.4740     4.6480 hc         1 8NR       0.018200
     35 H8          -4.5690     0.2670     5.8720 hc         1 8NR       0.018200
     36 H9          -4.5660    -1.4620     4.0020 hc         1 8NR       0.018700
     37 H10         -5.8480    -0.2410     3.8800 hc         1 8NR       0.018700
     38 H11         -4.5900     1.0160     2.2550 hc         1 8NR       0.022200
     39 H12         -4.6070    -0.6710     1.7200 hc         1 8NR       0.022200
     40 H13          6.0600     0.3510     1.0590 h1         1 8NR       0.042950
     41 H14          6.1300     0.8170     2.7700 h1         1 8NR       0.042950
     42 H15          5.8070     2.6520     0.3670 h1         1 8NR       0.039700
     43 H16          7.1560     2.6100     1.5190 h1         1 8NR       0.039700
     44 H17          3.4770     3.5750     1.3860 h1         1 8NR       0.039700
     45 H18          3.5470     4.0410     3.0960 h1         1 8NR       0.039700
     46 H19          3.8010     1.7410     3.7880 h1         1 8NR       0.042950
     47 H20          2.4510     1.7820     2.6370 h1         1 8NR       0.042950
     48 H21          6.8670     5.6540     5.1570 h1         1 8NR       0.010200
     49 H22          6.7360     6.7940     3.8110 h1         1 8NR       0.010200
     50 H23          4.7000     6.4470     6.0430 hc         1 8NR       0.010033
     51 H24          5.8470     7.7850     5.8930 hc         1 8NR       0.010033
     52 H25          4.5620     7.5830     4.6940 hc         1 8NR       0.010033
@<TRIPOS>BOND
     1     1     2 ar  
     2     1     6 ar  
     3     1    28 1   
     4     2     3 ar  
     5     2    29 1   
     6     3     4 ar  
     7     3    14 1   
     8     4     5 ar  
     9     4    30 1   
    10     5     6 ar  
    11     5    22 ar  
    12     6     9 ar  
    13     7     8 ar  
    14     7    10 1   
    15     7    22 ar  
    16     8     9 ar  
    17     8    13 1   
    18     9    31 1   
    19    10    11 1   
    20    10    32 1   
    21    10    33 1   
    22    11    12 1   
    23    11    34 1   
    24    11    35 1   
    25    12    13 1   
    26    12    36 1   
    27    12    37 1   
    28    13    38 1   
    29    13    39 1   
    30    14    23 1   
    31    14    25 2   
    32    15    16 1   
    33    15    23 1   
    34    15    40 1   
    35    15    41 1   
    36    16    24 1   
    37    16    42 1   
    38    16    43 1   
    39    17    18 1   
    40    17    24 1   
    41    17    44 1   
    42    17    45 1   
    43    18    23 1   
    44    18    46 1   
    45    18    47 1   
    46    19    24 1   
    47    19    26 2   
    48    19    27 1   
    49    20    21 1   
    50    20    27 1   
    51    20    48 1   
    52    20    49 1   
    53    21    50 1   
    54    21    51 1   
    55    21    52 1   
@<TRIPOS>SUBSTRUCTURE
     1 8NR         1 TEMP              0 ****  ****    0 ROOT
