@<TRIPOS>MOLECULE
molecule
   51    55     1     0     0
SMALL
bcc


@<TRIPOS>ATOM
      1 N1           0.0000     0.0000     0.0000 na         1 8NS      -0.108100
      2 C4           3.5010     0.5300     5.4080 ca         1 8NS      -0.128000
      3 C5           2.8890     0.4680     4.1320 ca         1 8NS       0.175600
      4 C7           1.9410     3.2130     4.8580 cx         1 8NS      -0.139700
      5 C8           1.7780     4.7170     4.6340 cx         1 8NS      -0.137900
      6 C10          0.5240     0.0510     3.6440 c3         1 8NS       0.267100
      7 C13          1.3620     0.0000     0.0000 cc         1 8NS      -0.195900
      8 C17          3.1800    -0.0660     1.7060 cd         1 8NS      -0.077400
      9 C20          1.7610     0.0000     1.3510 cd         1 8NS      -0.050800
     10 C3           4.7600     0.0330     5.6300 ca         1 8NS      -0.049000
     11 C19          4.9150    -0.5920     3.3410 ca         1 8NS      -0.028000
     12 C12         -0.4410    -0.0350     1.2940 cc         1 8NS      -0.120300
     13 C18          3.6390    -0.0560     3.1130 ca         1 8NS      -0.055800
     14 C11          0.6240    -0.0100     2.1370 cd         1 8NS      -0.206300
     15 C2           5.4760    -0.5490     4.5980 ca         1 8NS      -0.296500
     16 C16          4.0580    -0.1190     0.6660 cc         1 8NS      -0.014400
     17 C14          2.3440    -0.0190    -1.0120 c          1 8NS       0.733100
     18 C9           3.1630     4.0750     4.5370 cx         1 8NS      -0.137900
     19 C            8.0940    -3.6570     5.6190 c3         1 8NS      -0.074100
     20 C1           6.7650    -2.9540     5.3390 c3         1 8NS      -0.206600
     21 N            1.5710     0.8820     4.2050 nh         1 8NS      -0.632000
     22 N2           3.6400    -0.0910    -0.6310 n          1 8NS      -0.329000
     23 O2           2.0330     0.0280    -2.1910 o          1 8NS      -0.658500
     24 O            7.7240    -1.1470     3.6250 o          1 8NS      -0.622300
     25 O1           7.5660    -0.4990     6.0080 o          1 8NS      -0.622300
     26 S            7.0780    -1.2250     4.8880 sy         1 8NS       1.195300
     27 H           -0.5820     0.0220    -0.8140 hn         1 8NS       0.314700
     28 H7           2.9600     0.9810     6.2310 ha         1 8NS       0.148000
     29 H8           2.0090     2.4270     2.8580 h1         1 8NS       0.049200
     30 H9           0.3870     2.4870     3.5620 h1         1 8NS       0.049200
     31 H10          1.8680     2.8980     5.8920 hc         1 8NS       0.089700
     32 H12          1.5970     5.3050     5.5260 hc         1 8NS       0.074700
     33 H11          1.3280     5.0030     3.6910 hc         1 8NS       0.074700
     34 H16         -0.4400     0.4620     3.9180 h1         1 8NS       0.063200
     35 H15          0.6150    -0.9520     4.0450 h1         1 8NS       0.063200
     36 H20          4.6450     0.7810    -2.2460 h1         1 8NS       0.055700
     37 H19          4.4530    -0.9740    -2.3450 h1         1 8NS       0.055700
     38 H18          5.6360    -0.2750    -1.2310 h1         1 8NS       0.055700
     39 H6           5.1870     0.0740     6.6250 ha         1 8NS       0.149000
     40 H22          5.4620    -1.0440     2.5230 ha         1 8NS       0.147000
     41 H17         -1.4800    -0.0760     1.5990 h4         1 8NS       0.172000
     42 H21          5.1190    -0.1820     0.8760 h4         1 8NS       0.164000
     43 H13          3.8280     4.2720     5.3700 hc         1 8NS       0.074700
     44 H14          3.5600     3.9690     3.5350 hc         1 8NS       0.074700
     45 H1           7.9070    -4.6870     5.8950 hc         1 8NS       0.051700
     46 H2           8.6050    -3.1530     6.4310 hc         1 8NS       0.051700
     47 H3           8.7130    -3.6270     4.7300 hc         1 8NS       0.051700
     48 H4           6.2570    -3.4530     4.5230 h1         1 8NS       0.098700
     49 H5           6.1440    -2.9890     6.2260 h1         1 8NS       0.098700
     50 C6           1.4300     2.2750     3.7610 c3         1 8NS       0.208800
     51 C15          4.6600    -0.1430    -1.6820 c3         1 8NS       0.086300
@<TRIPOS>BOND
     1     1     7 1   
     2     1    12 1   
     3     2     3 ar  
     4     2    10 ar  
     5     3    13 ar  
     6     3    21 1   
     7    50     4 1   
     8    50    21 1   
     9     4     5 1   
    10     4    18 1   
    11     5    18 1   
    12     6    14 1   
    13     6    21 1   
    14     7     9 2   
    15     7    17 1   
    16    51    22 1   
    17     8     9 1   
    18     8    13 1   
    19     8    16 2   
    20     9    14 1   
    21    10    15 ar  
    22    11    13 ar  
    23    11    15 ar  
    24    12    14 2   
    25    15    26 1   
    26    16    22 1   
    27    17    22 1   
    28    17    23 2   
    29    19    20 1   
    30    20    26 1   
    31    24    26 2   
    32    25    26 2   
    33     1    27 1   
    34     2    28 1   
    35    50    29 1   
    36    50    30 1   
    37     4    31 1   
    38     5    32 1   
    39     5    33 1   
    40     6    34 1   
    41     6    35 1   
    42    51    36 1   
    43    51    37 1   
    44    51    38 1   
    45    10    39 1   
    46    11    40 1   
    47    12    41 1   
    48    16    42 1   
    49    18    43 1   
    50    18    44 1   
    51    19    45 1   
    52    19    46 1   
    53    19    47 1   
    54    20    48 1   
    55    20    49 1   
@<TRIPOS>SUBSTRUCTURE
     1 8NS         1 TEMP              0 ****  ****    0 ROOT
