@<TRIPOS>MOLECULE
molecule
   39    39     1     0     0
SMALL
bcc


@<TRIPOS>ATOM
      1 C1           0.0000     0.0000     0.0000 c3         1 8NT      -0.063400
      2 C2           1.5300     0.0000     0.0000 c3         1 8NT       0.040400
      3 C10         -4.0580     0.1370    -2.8810 c          1 8NT       0.652100
      4 C13         -6.1970     0.1920    -4.0460 c3         1 8NT       0.111000
      5 C14         -6.7070     0.2620    -5.4870 c3         1 8NT      -0.074400
      6 C15         -8.2370     0.2610    -5.4860 c3         1 8NT      -0.253600
      7 C5           3.5800    -0.2680     1.4700 c3         1 8NT       0.027700
      8 C6           2.0630     0.0000     1.4460 c3         1 8NT      -0.101400
      9 C7          -0.5100     0.0690    -1.4410 c3         1 8NT      -0.088400
     10 C8          -2.0400     0.0680    -1.4400 c3         1 8NT      -0.064400
     11 C9          -2.5510     0.1380    -2.8810 c3         1 8NT      -0.161400
     12 N1          -4.7320     0.1930    -4.0460 ns         1 8NT      -0.579900
     13 O1          -4.6640     0.0850    -1.8320 o          1 8NT      -0.624100
     14 O2          -8.5470     1.6100    -7.7670 o          1 8NT      -0.706200
     15 O3          -8.5450    -0.8610    -7.8880 o          1 8NT      -0.706200
     16 O4         -10.3580     0.3360    -7.0620 o          1 8NT      -0.706200
     17 S1           2.1650    -1.5420    -0.7640 ss         1 8NT      -0.204100
     18 S2           3.8380    -1.7610     0.4360 ss         1 8NT      -0.231100
     19 S3          -8.8420     0.3440    -7.1950 s6         1 8NT       1.255800
     20 H1          -0.3610     0.8590     0.5520 hc         1 8NT       0.059200
     21 H2          -0.3610    -0.9080     0.4680 hc         1 8NT       0.059200
     22 H3           1.9090     0.8620    -0.5350 h1         1 8NT       0.080700
     23 H4          -6.5590     1.0500    -3.4930 h1         1 8NT       0.050700
     24 H5          -6.5570    -0.7170    -3.5800 h1         1 8NT       0.050700
     25 H6          -6.3470     1.1710    -5.9540 hc         1 8NT       0.045700
     26 H7          -6.3460    -0.5960    -6.0410 hc         1 8NT       0.045700
     27 H8          -8.5990     1.1190    -4.9330 h1         1 8NT       0.076200
     28 H9          -8.5980    -0.6480    -5.0190 h1         1 8NT       0.076200
     29 H10          3.9090    -0.4560     2.4840 h1         1 8NT       0.079200
     30 H11          4.1130     0.5750     1.0470 h1         1 8NT       0.079200
     31 H12          1.8660     0.9650     1.8970 hc         1 8NT       0.071700
     32 H13          1.5570    -0.7740     2.0110 hc         1 8NT       0.071700
     33 H14         -0.1500     0.9770    -1.9090 hc         1 8NT       0.047200
     34 H15         -0.1490    -0.7900    -1.9940 hc         1 8NT       0.047200
     35 H16         -2.4020     0.9260    -0.8870 hc         1 8NT       0.058200
     36 H17         -2.4010    -0.8410    -0.9730 hc         1 8NT       0.058200
     37 H18         -2.1900     1.0470    -3.3480 hc         1 8NT       0.056700
     38 H19         -2.1890    -0.7200    -3.4350 hc         1 8NT       0.056700
     39 H20         -4.2320     0.2350    -4.9120 hn         1 8NT       0.311500
@<TRIPOS>BOND
     1     7     8 1   
     2     7    18 1   
     3     8     2 1   
     4     2     1 1   
     5     2    17 1   
     6     1     9 1   
     7    18    17 1   
     8     9    10 1   
     9    10    11 1   
    10    11     3 1   
    11     3    12 1   
    12     3    13 2   
    13    12     4 1   
    14     4     5 1   
    15     6     5 1   
    16     6    19 1   
    17    15    19 1   
    18    14    19 1   
    19    19    16 1   
    20     1    20 1   
    21     1    21 1   
    22     2    22 1   
    23     4    23 1   
    24     4    24 1   
    25     5    25 1   
    26     5    26 1   
    27     6    27 1   
    28     6    28 1   
    29     7    29 1   
    30     7    30 1   
    31     8    31 1   
    32     8    32 1   
    33     9    33 1   
    34     9    34 1   
    35    10    35 1   
    36    10    36 1   
    37    11    37 1   
    38    11    38 1   
    39    12    39 1   
@<TRIPOS>SUBSTRUCTURE
     1 8NT         1 TEMP              0 ****  ****    0 ROOT
