@<TRIPOS>MOLECULE
8NV
   54    58     1     0     0
SMALL
bcc


@<TRIPOS>ATOM
      1 C4           0.0000     0.0000     0.0000 cc         1 8NV      -0.316300
      2 C5           4.3220    -0.1010    -1.1090 ca         1 8NV      -0.049800
      3 C6           1.7620     0.0640    -1.3210 cd         1 8NV      -0.059800
      4 C7           1.3570     0.0000     0.0000 cd         1 8NV      -0.185300
      5 C8           4.3940     0.4080     0.1620 ca         1 8NV       0.079600
      6 C10          0.6100     0.1460    -2.1300 cc         1 8NV      -0.411900
      7 C13          0.7530     0.2110    -3.5300 c          1 8NV       0.657100
      8 C15          1.7660     4.1870     1.9770 cx         1 8NV      -0.082900
      9 C17          2.1550     2.7070     1.9650 cx         1 8NV      -0.117700
     10 C22          8.1260    -3.0320    -1.3860 c3         1 8NV      -0.013900
     11 C1           5.6760     0.4590     0.7590 ca         1 8NV      -0.125000
     12 C2           6.7860    -0.0400     0.1250 ca         1 8NV      -0.017000
     13 C3           5.4460    -0.6470    -1.7450 ca         1 8NV      -0.004000
     14 C9           6.6780    -0.6170    -1.1290 ca         1 8NV      -0.148500
     15 C11          3.1340     0.0020    -3.2890 cc         1 8NV      -0.162400
     16 C12          3.0920    -0.0180    -1.9280 cd         1 8NV      -0.050400
     17 C14          2.2290     0.0000     1.2350 c3         1 8NV       0.250100
     18 C16          0.7270     3.1240     1.6130 cx         1 8NV      -0.082900
     19 C18          9.3910    -3.7080    -1.9160 c3         1 8NV       0.029400
     20 C19          8.1180    -3.0900     0.1430 c3         1 8NV       0.029400
     21 N23         -0.4580     0.1070    -1.2850 na         1 8NV       0.498900
     22 N24          3.4120     0.8150     1.0470 nh         1 8NV      -0.391000
     23 N25          2.0030     0.1170    -4.0410 n          1 8NV       0.098000
     24 O26         -0.2170     0.3450    -4.2570 o          1 8NV      -0.712500
     25 O27          9.1890    -0.5840    -1.3680 o          1 8NV      -0.588300
     26 O28          7.7920    -1.2140    -3.3110 o          1 8NV      -0.588300
     27 S29          8.0940    -1.3000    -1.9250 sy         1 8NV       0.875300
     28 H4          -0.6250    -0.0760     0.8820 h4         1 8NV       0.149000
     29 H152         1.6550     4.6330     2.9580 hc         1 8NV       0.045200
     30 H17          2.2690     2.2600     2.9450 hc         1 8NV       0.066700
     31 H1           5.7850     0.9060     1.7400 ha         1 8NV       0.120000
     32 H2           7.7480    -0.0090     0.6210 ha         1 8NV       0.123000
     33 H3           5.3450    -1.0950    -2.7260 ha         1 8NV       0.126000
     34 H11          4.0940    -0.0670    -3.7880 h4         1 8NV       0.144000
     35 H142         2.5320    -1.0170     1.4530 h1         1 8NV       0.030200
     36 H141         1.6590     0.3920     2.0690 h1         1 8NV       0.030200
     37 H162        -0.0200     2.9220     2.3710 hc         1 8NV       0.045200
     38 H161         0.4670     3.0650     0.5630 hc         1 8NV       0.045200
     39 H181        10.2510    -3.3520    -1.3610 hc         1 8NV       0.014367
     40 H183         9.3040    -4.7810    -1.7980 hc         1 8NV       0.014367
     41 H182         9.5160    -3.4690    -2.9660 hc         1 8NV       0.014367
     42 H191         7.1100    -2.9280     0.5060 hc         1 8NV       0.014367
     43 H192         8.7710    -2.3200     0.5370 hc         1 8NV       0.014367
     44 H193         8.4670    -4.0620     0.4690 hc         1 8NV       0.014367
     45 H23         -1.4190     0.1490    -1.5600 hn         1 8NV       0.116700
     46 H5           7.2530    -3.5460    -1.7720 h1         1 8NV       0.070700
     47 C20          2.1500     0.1390    -5.4980 c3         1 8NV       0.048300
     48 C21          3.0510     2.2220     0.8230 c3         1 8NV       0.180800
     49 H151         2.1420     4.7760     1.1500 hc         1 8NV       0.045200
     50 H203         3.1690    -0.1170    -5.7630 h1         1 8NV       0.023367
     51 H201         1.9180     1.1300    -5.8700 h1         1 8NV       0.023367
     52 H202         1.4700    -0.5800    -5.9410 h1         1 8NV       0.023367
     53 H211         2.5200     2.3140    -0.1170 h1         1 8NV       0.024200
     54 H212         3.9510     2.8240     0.7900 h1         1 8NV       0.024200
@<TRIPOS>BOND
     1     1     4 2   
     2     1    21 1   
     3     1    28 1   
     4     2     5 ar  
     5     2    13 ar  
     6     2    16 1   
     7     3     4 1   
     8     3     6 2   
     9     3    16 1   
    10     4    17 1   
    11     5    11 ar  
    12     5    22 1   
    13     6     7 1   
    14     6    21 1   
    15     7    23 1   
    16     7    24 2   
    17     8     9 1   
    18     8    18 1   
    19     8    29 1   
    20     8    49 1   
    21     9    18 1   
    22     9    30 1   
    23     9    48 1   
    24    10    19 1   
    25    10    20 1   
    26    10    27 1   
    27    10    46 1   
    28    11    12 ar  
    29    11    31 1   
    30    12    14 ar  
    31    12    32 1   
    32    13    14 ar  
    33    13    33 1   
    34    14    27 1   
    35    15    16 2   
    36    15    23 1   
    37    15    34 1   
    38    17    22 1   
    39    17    35 1   
    40    17    36 1   
    41    18    37 1   
    42    18    38 1   
    43    19    39 1   
    44    19    40 1   
    45    19    41 1   
    46    20    42 1   
    47    20    43 1   
    48    20    44 1   
    49    21    45 1   
    50    22    48 1   
    51    23    47 1   
    52    25    27 2   
    53    26    27 2   
    54    47    50 1   
    55    47    51 1   
    56    47    52 1   
    57    48    53 1   
    58    48    54 1   
@<TRIPOS>SUBSTRUCTURE
     1 8NV         1 TEMP              0 ****  ****    0 ROOT
