@<TRIPOS>MOLECULE
molecule
   54    58     1     0     0
SMALL
bcc


@<TRIPOS>ATOM
      1 C4           0.0000     0.0000     0.0000 cc         1 8NV      -0.117300
      2 C5           4.3220    -0.1010    -1.1090 ca         1 8NV      -0.056800
      3 C6           1.7620     0.0640    -1.3210 cd         1 8NV      -0.053800
      4 C7           1.3570     0.0000     0.0000 cd         1 8NV      -0.199300
      5 C8           4.3940     0.4080     0.1620 ca         1 8NV       0.170600
      6 C10          0.6100     0.1460    -2.1300 cc         1 8NV      -0.197900
      7 C13          0.7530     0.2110    -3.5300 c          1 8NV       0.734100
      8 C15          1.7660     4.1870     1.9770 cx         1 8NV      -0.138400
      9 C17          2.1550     2.7070     1.9650 cx         1 8NV      -0.139700
     10 C22          8.1260    -3.0320    -1.3860 c3         1 8NV      -0.188900
     11 C1           5.6760     0.4590     0.7590 ca         1 8NV      -0.136000
     12 C2           6.7860    -0.0400     0.1250 ca         1 8NV      -0.046000
     13 C3           5.4460    -0.6470    -1.7450 ca         1 8NV      -0.028000
     14 C9           6.6780    -0.6170    -1.1290 ca         1 8NV      -0.294500
     15 C11          3.1340     0.0020    -3.2890 cc         1 8NV      -0.013400
     16 C12          3.0920    -0.0180    -1.9280 cd         1 8NV      -0.078400
     17 C14          2.2290     0.0000     1.2350 c3         1 8NV       0.264100
     18 C16          0.7270     3.1240     1.6130 cx         1 8NV      -0.138400
     19 C18          9.3910    -3.7080    -1.9160 c3         1 8NV      -0.072600
     20 C19          8.1180    -3.0900     0.1430 c3         1 8NV      -0.072600
     21 N23         -0.4580     0.1070    -1.2850 na         1 8NV      -0.110100
     22 N24          3.4120     0.8150     1.0470 nh         1 8NV      -0.631000
     23 N25          2.0030     0.1170    -4.0410 n          1 8NV      -0.330000
     24 O26         -0.2170     0.3450    -4.2570 o          1 8NV      -0.658500
     25 O27          9.1890    -0.5840    -1.3680 o          1 8NV      -0.622800
     26 O28          7.7920    -1.2140    -3.3110 o          1 8NV      -0.622800
     27 S29          8.0940    -1.3000    -1.9250 sy         1 8NV       1.197300
     28 H4          -0.6250    -0.0760     0.8820 h4         1 8NV       0.172000
     29 H152         1.6550     4.6330     2.9580 hc         1 8NV       0.074700
     30 H17          2.2690     2.2600     2.9450 hc         1 8NV       0.088700
     31 H1           5.7850     0.9060     1.7400 ha         1 8NV       0.149000
     32 H2           7.7480    -0.0090     0.6210 ha         1 8NV       0.150000
     33 H3           5.3450    -1.0950    -2.7260 ha         1 8NV       0.148000
     34 H11          4.0940    -0.0670    -3.7880 h4         1 8NV       0.164000
     35 H142         2.5320    -1.0170     1.4530 h1         1 8NV       0.064700
     36 H141         1.6590     0.3920     2.0690 h1         1 8NV       0.064700
     37 H162        -0.0200     2.9220     2.3710 hc         1 8NV       0.074700
     38 H161         0.4670     3.0650     0.5630 hc         1 8NV       0.074700
     39 H181        10.2510    -3.3520    -1.3610 hc         1 8NV       0.050533
     40 H183         9.3040    -4.7810    -1.7980 hc         1 8NV       0.050533
     41 H182         9.5160    -3.4690    -2.9660 hc         1 8NV       0.050533
     42 H191         7.1100    -2.9280     0.5060 hc         1 8NV       0.050533
     43 H192         8.7710    -2.3200     0.5370 hc         1 8NV       0.050533
     44 H193         8.4670    -4.0620     0.4690 hc         1 8NV       0.050533
     45 H23         -1.4190     0.1490    -1.5600 hn         1 8NV       0.313700
     46 H5           7.2530    -3.5460    -1.7720 h1         1 8NV       0.101700
     47 C20          2.1500     0.1390    -5.4980 c3         1 8NV       0.085300
     48 C21          3.0510     2.2220     0.8230 c3         1 8NV       0.206800
     49 H151         2.1420     4.7760     1.1500 hc         1 8NV       0.074700
     50 H203         3.1690    -0.1170    -5.7630 h1         1 8NV       0.055700
     51 H201         1.9180     1.1300    -5.8700 h1         1 8NV       0.055700
     52 H202         1.4700    -0.5800    -5.9410 h1         1 8NV       0.055700
     53 H211         2.5200     2.3140    -0.1170 h1         1 8NV       0.051200
     54 H212         3.9510     2.8240     0.7900 h1         1 8NV       0.051200
@<TRIPOS>BOND
     1     1     4 2
     2     1    21 1
     3     2     5 ar
     4     2    13 ar
     5     2    16 1
     6     3     4 1
     7     3     6 2
     8     3    16 1
     9     4    17 1
    10     5    11 ar
    11     5    22 1
    12     6     7 1
    13     6    21 1
    14     7    23 1
    15     7    24 2
    16     8     9 1
    17     8    18 1
    18     9    48 1
    19     9    18 1
    20    47    23 1
    21    48    22 1
    22    10    19 1
    23    10    20 1
    24    10    27 1
    25    11    12 ar
    26    12    14 ar
    27    13    14 ar
    28    14    27 1
    29    15    16 2
    30    15    23 1
    31    17    22 1
    32    25    27 2
    33    26    27 2
    34     1    28 1
    35     8    49 1
    36     8    29 1
    37     9    30 1
    38    47    50 1
    39    47    51 1
    40    47    52 1
    41    48    53 1
    42    48    54 1
    43    11    31 1
    44    12    32 1
    45    13    33 1
    46    15    34 1
    47    17    35 1
    48    17    36 1
    49    18    37 1
    50    18    38 1
    51    19    39 1
    52    19    40 1
    53    19    41 1
    54    20    42 1
    55    20    43 1
    56    20    44 1
    57    21    45 1
    58    10    46 1
@<TRIPOS>SUBSTRUCTURE
     1 8NV         1 TEMP              0 ****  ****    0 ROOT
