@<TRIPOS>MOLECULE
molecule
   37    37     1     0     0
SMALL
bcc


@<TRIPOS>ATOM
      1 C1           0.0000     0.0000     0.0000 c3         1 8NW      -0.063400
      2 C2           1.5290     0.0000     0.0000 c3         1 8NW       0.039400
      3 N1          -4.7310    -3.7430     1.5510 ns         1 8NW      -0.588900
      4 O1          -4.6640    -1.6940     0.7030 o          1 8NW      -0.610100
      5 S1           2.1630     0.0000     1.7210 ss         1 8NW      -0.215100
      6 S2           3.8360     1.1720     1.3860 ss         1 8NW      -0.215100
      7 O3          -8.7130    -6.3210     2.6190 oh         1 8NW      -0.611800
      8 C5           3.5790     1.4370    -0.4110 c3         1 8NW       0.026700
      9 C6           2.0620     1.2960    -0.6440 c3         1 8NW      -0.100400
     10 C7          -0.5100    -1.3330     0.5520 c3         1 8NW      -0.088400
     11 C8          -2.0400    -1.3320     0.5520 c3         1 8NW      -0.065400
     12 C9          -2.5510    -2.6650     1.1040 c3         1 8NW      -0.157400
     13 C10         -4.0570    -2.6650     1.1040 c          1 8NW       0.657100
     14 C13         -6.1970    -3.7430     1.5520 c3         1 8NW       0.112000
     15 C14         -6.7060    -5.0760     2.1030 c3         1 8NW      -0.101400
     16 C15         -8.2370    -5.0760     2.1040 c3         1 8NW       0.145400
     17 H1          -0.3610     0.1340    -1.0130 hc         1 8NW       0.059700
     18 H2          -0.3610     0.8100     0.6220 hc         1 8NW       0.059700
     19 H3           1.9080    -0.8630    -0.5350 h1         1 8NW       0.080700
     20 H4          -4.2300    -4.5440     1.8820 hn         1 8NW       0.314500
     21 H5          -9.6560    -6.3210     2.6190 ho         1 8NW       0.406000
     22 H6           3.9080     2.4300    -0.6920 h1         1 8NW       0.082200
     23 H7           4.1140     0.6850    -0.9790 h1         1 8NW       0.082200
     24 H8           1.5550     2.1460    -0.2040 hc         1 8NW       0.072200
     25 H9           1.8670     1.2700    -1.7090 hc         1 8NW       0.072200
     26 H10         -0.1490    -1.4670     1.5640 hc         1 8NW       0.048700
     27 H11         -0.1500    -2.1430    -0.0710 hc         1 8NW       0.048700
     28 H12         -2.4010    -0.5220     1.1740 hc         1 8NW       0.060200
     29 H13         -2.4010    -1.1990    -0.4600 hc         1 8NW       0.060200
     30 H14         -2.1900    -2.7980     2.1170 hc         1 8NW       0.060700
     31 H15         -2.1900    -3.4750     0.4830 hc         1 8NW       0.060700
     32 H16         -6.5580    -3.6090     0.5390 h1         1 8NW       0.053200
     33 H17         -6.5570    -2.9330     2.1740 h1         1 8NW       0.053200
     34 H18         -6.3460    -5.8860     1.4810 hc         1 8NW       0.058200
     35 H19         -6.3450    -5.2100     3.1160 hc         1 8NW       0.058200
     36 H20         -8.5980    -4.9420     1.0920 h1         1 8NW       0.023700
     37 H21         -8.5980    -4.2660     2.7270 h1         1 8NW       0.023700
@<TRIPOS>BOND
     1     8     6 1
     2     8     9 1
     3     6     5 1
     4     9     2 1
     5     5     2 1
     6     2     1 1
     7    11    12 1
     8    11    10 1
     9    12    13 1
    10    10     1 1
    11    13     3 1
    12    13     4 2
    13     3    14 1
    14    14    15 1
    15    15    16 1
    16    16     7 1
    17     1    17 1
    18     1    18 1
    19     2    19 1
    20     3    20 1
    21     7    21 1
    22     8    22 1
    23     8    23 1
    24     9    24 1
    25     9    25 1
    26    10    26 1
    27    10    27 1
    28    11    28 1
    29    11    29 1
    30    12    30 1
    31    12    31 1
    32    14    32 1
    33    14    33 1
    34    15    34 1
    35    15    35 1
    36    16    36 1
    37    16    37 1
@<TRIPOS>SUBSTRUCTURE
     1 8NW         1 TEMP              0 ****  ****    0 ROOT
