@<TRIPOS>MOLECULE
8NW
   37    37     1     0     0
SMALL
bcc


@<TRIPOS>ATOM
      1 C1           0.0000     0.0000     0.0000 c3         1 8NW      -0.008400
      2 C2           1.5290     0.0000     0.0000 c3         1 8NW       0.071400
      3 N1          -4.7310    -3.7430     1.5510 ns         1 8NW      -0.201900
      4 O1          -4.6640    -1.6940     0.7030 o          1 8NW      -0.649100
      5 S1           2.1630     0.0000     1.7210 ss         1 8NW      -0.231100
      6 S2           3.8360     1.1720     1.3860 ss         1 8NW      -0.229100
      7 O3          -8.7130    -6.3210     2.6190 oh         1 8NW      -0.594800
      8 C5           3.5790     1.4370    -0.4110 c3         1 8NW       0.095700
      9 C6           2.0620     1.2960    -0.6440 c3         1 8NW      -0.046400
     10 C7          -0.5100    -1.3330     0.5520 c3         1 8NW      -0.040400
     11 C8          -2.0400    -1.3320     0.5520 c3         1 8NW      -0.012400
     12 C9          -2.5510    -2.6650     1.1040 c3         1 8NW      -0.096400
     13 C10         -4.0570    -2.6650     1.1040 c          1 8NW       0.571100
     14 C13         -6.1970    -3.7430     1.5520 c3         1 8NW       0.054000
     15 C14         -6.7060    -5.0760     2.1030 c3         1 8NW      -0.053400
     16 C15         -8.2370    -5.0760     2.1040 c3         1 8NW       0.232400
     17 H1          -0.3610     0.1340    -1.0130 hc         1 8NW       0.032200
     18 H2          -0.3610     0.8100     0.6220 hc         1 8NW       0.032200
     19 H3           1.9080    -0.8630    -0.5350 h1         1 8NW       0.062700
     20 H4          -4.2300    -4.5440     1.8820 hn         1 8NW       0.175500
     21 H5          -9.6560    -6.3210     2.6190 ho         1 8NW       0.393000
     22 H6           3.9080     2.4300    -0.6920 h1         1 8NW       0.055700
     23 H7           4.1140     0.6850    -0.9790 h1         1 8NW       0.055700
     24 H8           1.5550     2.1460    -0.2040 hc         1 8NW       0.044200
     25 H9           1.8670     1.2700    -1.7090 hc         1 8NW       0.044200
     26 H10         -0.1490    -1.4670     1.5640 hc         1 8NW       0.022700
     27 H11         -0.1500    -2.1430    -0.0710 hc         1 8NW       0.022700
     28 H12         -2.4010    -0.5220     1.1740 hc         1 8NW       0.031200
     29 H13         -2.4010    -1.1990    -0.4600 hc         1 8NW       0.031200
     30 H14         -2.1900    -2.7980     2.1170 hc         1 8NW       0.028200
     31 H15         -2.1900    -3.4750     0.4830 hc         1 8NW       0.028200
     32 H16         -6.5580    -3.6090     0.5390 h1         1 8NW       0.026200
     33 H17         -6.5570    -2.9330     2.1740 h1         1 8NW       0.026200
     34 H18         -6.3460    -5.8860     1.4810 hc         1 8NW       0.025700
     35 H19         -6.3450    -5.2100     3.1160 hc         1 8NW       0.025700
     36 H20         -8.5980    -4.9420     1.0920 h1         1 8NW      -0.012300
     37 H21         -8.5980    -4.2660     2.7270 h1         1 8NW      -0.012300
@<TRIPOS>BOND
     1     1     2 1   
     2     1    10 1   
     3     1    17 1   
     4     1    18 1   
     5     2     5 1   
     6     2     9 1   
     7     2    19 1   
     8     3    13 1   
     9     3    14 1   
    10     3    20 1   
    11     4    13 2   
    12     5     6 1   
    13     6     8 1   
    14     7    16 1   
    15     7    21 1   
    16     8     9 1   
    17     8    22 1   
    18     8    23 1   
    19     9    24 1   
    20     9    25 1   
    21    10    11 1   
    22    10    26 1   
    23    10    27 1   
    24    11    12 1   
    25    11    28 1   
    26    11    29 1   
    27    12    13 1   
    28    12    30 1   
    29    12    31 1   
    30    14    15 1   
    31    14    32 1   
    32    14    33 1   
    33    15    16 1   
    34    15    34 1   
    35    15    35 1   
    36    16    36 1   
    37    16    37 1   
@<TRIPOS>SUBSTRUCTURE
     1 8NW         1 TEMP              0 ****  ****    0 ROOT
