@<TRIPOS>MOLECULE
molecule
   17    18     1     0     0
SMALL
bcc


@<TRIPOS>ATOM
      1 N1           0.0000     0.0000     0.0000 ns         1 8NX      -0.554500
      2 C2           1.3440     0.0000     0.0000 c          1 8NX       0.820500
      3 O2           1.9370    -0.0000    -1.0610 o          1 8NX      -0.629500
      4 N3           2.0510     0.0000     1.1470 ns         1 8NX      -0.510400
      5 C4           1.3950    -0.0010     2.3670 cc         1 8NX       0.504200
      6 C5           0.0060    -0.0020     2.3820 cd         1 8NX      -0.316200
      7 C6          -0.6950    -0.0010     1.1570 c          1 8NX       0.743100
      8 O6          -1.9130    -0.0010     1.1440 o          1 8NX      -0.606500
      9 N7          -0.3670    -0.0030     3.7120 na         1 8NX      -0.206900
     10 C8           0.7680    -0.0040     4.4380 cd         1 8NX       0.396000
     11 N9           1.8050    -0.0020     3.6390 nc         1 8NX      -0.655000
     12 N10          0.8330    -0.0050     5.9170 no         1 8NX       0.219500
     13 O11         -0.1940    -0.0070     6.5710 o          1 8NX      -0.154000
     14 O12          1.9140    -0.0060     6.4780 o          1 8NX      -0.154000
     15 HN1         -0.4930     0.0010    -0.8710 hn         1 8NX       0.380500
     16 HN3          3.0510     0.0000     1.1180 hn         1 8NX       0.376500
     17 HN7         -1.3020    -0.0040     4.0680 hn         1 8NX       0.347700
@<TRIPOS>BOND
     1     1     2 1
     2     1     7 1
     3     2     3 2
     4     2     4 1
     5     4     5 1
     6     5     6 2
     7     5    11 1
     8     6     7 1
     9     6     9 1
    10     7     8 2
    11     9    10 1
    12    10    11 2
    13    10    12 1
    14    12    13 1
    15    12    14 1
    16     1    15 1
    17     4    16 1
    18     9    17 1
@<TRIPOS>SUBSTRUCTURE
     1 8NX         1 TEMP              0 ****  ****    0 ROOT
