@<TRIPOS>MOLECULE
molecule
   15    16     1     0     0
SMALL
bcc


@<TRIPOS>ATOM
      1 C1           0.0000     0.0000     0.0000 ca         1 8NY      -0.058000
      2 C2           1.3660     0.0000     0.0000 ca         1 8NY      -0.157000
      3 C3           2.0600     0.0000     1.2070 ca         1 8NY      -0.009200
      4 C4           1.3420     0.0000     2.4190 ca         1 8NY      -0.259900
      5 C5          -0.0580     0.0000     2.3930 ca         1 8NY      -0.019000
      6 C6          -0.7110     0.0000     1.1950 ca         1 8NY       0.011900
      7 I7          -2.8060     0.0000     1.1550 i          1 8NY      -0.170900
      8 C8           2.3370    -0.0000     3.4850 cc         1 8NY       0.384800
      9 N9           3.5150    -0.0000     2.9300 nd         1 8NY      -0.496100
     10 N10          3.3900    -0.0000     1.5380 na         1 8NY      -0.050100
     11 H1          -0.5350     0.0000    -0.9420 ha         1 8NY       0.145000
     12 H2           1.9080    -0.0000    -0.9380 ha         1 8NY       0.136000
     13 H5          -0.6200    -0.0000     3.3200 ha         1 8NY       0.144000
     14 H8           2.1320    -0.0000     4.5490 h4         1 8NY       0.065800
     15 HN10         4.1500    -0.0000     0.8860 hn         1 8NY       0.334700
@<TRIPOS>BOND
     1     1     2 ar  
     2     1     6 ar  
     3     2     3 ar  
     4     3     4 ar  
     5     3    10 1   
     6     4     5 ar  
     7     4     8 1   
     8     5     6 ar  
     9     6     7 1   
    10     8     9 2   
    11     9    10 1   
    12     1    11 1   
    13     2    12 1   
    14     5    13 1   
    15     8    14 1   
    16    10    15 1   
@<TRIPOS>SUBSTRUCTURE
     1 8NY         1 TEMP              0 ****  ****    0 ROOT
