@<TRIPOS>MOLECULE
8NY
   15    16     1     0     0
SMALL
bcc


@<TRIPOS>ATOM
      1 C1         -0.0130   -0.0000   -0.0110 ca        1 8NY     -0.068000
      2 C2          1.3720   -0.0000   -0.0340 ca        1 8NY     -0.146000
      3 C3          2.0370   -0.0000    1.2010 ca        1 8NY     -0.033200
      4 C4          1.2980   -0.0000    2.4460 ca        1 8NY     -0.223900
      5 C5         -0.0940   -0.0000    2.4270 ca        1 8NY     -0.021000
      6 C6         -0.7390   -0.0000    1.1980 ca        1 8NY     -0.013100
      7 I7         -2.7580   -0.0000    1.1250 i         1 8NY     -0.142900
      8 C8          2.3360   -0.0000    3.4680 cc        1 8NY      0.351800
      9 N9          3.5530   -0.0000    2.8900 nd        1 8NY     -0.505100
     10 N10         3.3910   -0.0000    1.5590 na        1 8NY     -0.025100
     11 H1         -0.5600   -0.0000   -0.9680 ha        1 8NY      0.146000
     12 H2          1.9260   -0.0000   -0.9820 ha        1 8NY      0.144000
     13 H5         -0.6560   -0.0000    3.3740 ha        1 8NY      0.151000
     14 H8          2.2000   -0.0000    4.5500 h4        1 8NY      0.058800
     15 HN10        4.1750    0.0010    0.9530 hn        1 8NY      0.327700
@<TRIPOS>BOND
     1    1    2 ar  
     2    1    6 ar  
     3    1   11 1   
     4    2    3 ar  
     5    2   12 1   
     6    3    4 ar  
     7    3   10 1   
     8    4    5 ar  
     9    4    8 1   
    10    5    6 ar  
    11    5   13 1   
    12    6    7 1   
    13    8    9 2   
    14    8   14 1   
    15    9   10 1   
    16   10   15 1   
@<TRIPOS>SUBSTRUCTURE
     1 8NY         1 TEMP              0 ****  ****    0 ROOT
