@<TRIPOS>MOLECULE
molecule
   18    19     1     0     0
SMALL
bcc


@<TRIPOS>ATOM
      1 C2           0.0000     0.0000     0.0000 c          1 8NZ       0.905800
      2 C3           1.4670     0.0000     0.0000 cc         1 8NZ      -0.141400
      3 C4           2.2840     0.0000     1.0930 cd         1 8NZ      -0.110100
      4 C5           3.6610    -0.0030    -0.6800 ca         1 8NZ      -0.047200
      5 C6           4.7310    -0.0050    -1.5690 ca         1 8NZ      -0.163000
      6 C7           4.4970    -0.0100    -2.9260 ca         1 8NZ      -0.113000
      7 C8           3.2000    -0.0120    -3.4210 ca         1 8NZ      -0.091900
      8 O1          -0.6750     0.0060     1.1690 o          1 8NZ      -0.841300
      9 Br           2.9040    -0.0180    -5.2880 br         1 8NZ      -0.149100
     10 C9           2.1260    -0.0100    -2.5550 ca         1 8NZ       0.000000
     11 C10          2.3500    -0.0060    -1.1800 ca         1 8NZ      -0.064800
     12 N            3.5790     0.0010     0.6980 na         1 8NZ      -0.191400
     13 O2          -0.6080    -0.0000    -1.0530 o          1 8NZ      -0.841300
     14 H1           1.9470    -0.0010     2.1230 h4         1 8NZ       0.182000
     15 H2           5.7760    -0.0040    -1.2820 ha         1 8NZ       0.110000
     16 H3           5.3080    -0.0110    -3.6440 ha         1 8NZ       0.119000
     17 H5           1.2160    -0.0120    -3.1430 ha         1 8NZ       0.165000
     18 H6           4.3650     0.0010     1.3170 hn         1 8NZ       0.273700
@<TRIPOS>BOND
     1     6     5 ar
     2     6     7 ar
     3     5     4 ar
     4     9     7 1
     5     7    10 ar
     6     4    12 1
     7     4    11 ar
     8    12     3 1
     9    10    11 ar
    10    11     2 1
    11     3     2 2
    12     2     1 1
    13     1    13 1
    14     1     8 1
    15     3    14 1
    16     5    15 1
    17     6    16 1
    18    10    17 1
    19    12    18 1
@<TRIPOS>SUBSTRUCTURE
     1 8NZ         1 TEMP              0 ****  ****    0 ROOT
