@<TRIPOS>MOLECULE
molecule
   50    53     1     0     0
SMALL
bcc


@<TRIPOS>ATOM
      1 C4           0.0000     0.0000     0.0000 ca         1 8O1       0.031000
      2 C5           2.1540    -3.2410    -3.0320 cc         1 8O1      -0.117300
      3 C6           2.2310    -1.2220    -2.0920 cd         1 8O1      -0.056800
      4 C7           1.3920     0.0000     0.0000 ca         1 8O1      -0.137800
      5 C8           2.0850     0.0000     1.2180 ca         1 8O1       0.248600
      6 C10          2.9460    -1.1750    -3.2930 cc         1 8O1      -0.191900
      7 C13          3.5460     0.0380    -3.6790 c          1 8O1       0.725100
      8 C15          6.9730    -0.3380     2.6930 cx         1 8O1      -0.144900
      9 C17         -4.4280    -1.8900     1.1910 c3         1 8O1      -0.074100
     10 C20         -2.9040    -1.7560     1.1930 c3         1 8O1      -0.209600
     11 C1           1.3800     0.0010     2.4110 ca         1 8O1      -0.237000
     12 C2          -0.0030     0.0010     2.3970 ca         1 8O1       0.017000
     13 C3           1.7450    -2.5370    -1.9550 cd         1 8O1      -0.203000
     14 C9          -0.6900     0.0010     1.1960 ca         1 8O1      -0.361500
     15 C11          2.7480     1.1270    -1.7290 cc         1 8O1      -0.025400
     16 C12          2.1380    -0.0020    -1.2810 cd         1 8O1      -0.068400
     17 C14          6.7320     1.0040     2.0000 cx         1 8O1      -0.144900
     18 C16          5.8470    -0.1980     1.6670 cx         1 8O1      -0.171700
     19 C19          4.2030     0.0010     2.5030 c3         1 8O1       0.274800
     20 N21          2.8810    -2.4310    -3.8510 na         1 8O1      -0.122100
     21 N22          3.4350     1.1330    -2.9070 n          1 8O1      -0.330000
     22 N23          3.4810     0.0000     1.2290 nu         1 8O1      -0.803600
     23 O24          4.1740     0.0960    -4.7250 o          1 8O1      -0.670500
     24 O25         -2.8000     0.6060    -0.0450 o          1 8O1      -0.624800
     25 O26         -2.8040     0.6070     2.4290 o          1 8O1      -0.624800
     26 S27         -2.4520     0.0010     1.1930 sy         1 8O1       1.200300
     27 H4          -0.5420     0.0000    -0.9380 ha         1 8O1       0.157000
     28 H5           1.9380    -4.2860    -3.2160 h4         1 8O1       0.171000
     29 H151         7.8450    -0.8870     2.3590 hc         1 8O1       0.074950
     30 H173        -4.8340    -1.4140     2.0760 hc         1 8O1       0.050367
     31 H172        -4.8320    -1.4120     0.3070 hc         1 8O1       0.050367
     32 H171        -4.6980    -2.9390     1.1890 hc         1 8O1       0.050367
     33 H1           1.9120     0.0010     3.3550 ha         1 8O1       0.135000
     34 H2          -0.5520     0.0020     3.3310 ha         1 8O1       0.148000
     35 H3           1.1490    -2.9160    -1.1340 ha         1 8O1       0.156000
     36 H11          2.6870     2.0350    -1.1420 h4         1 8O1       0.163000
     37 H142         7.4580     1.2750     1.2430 hc         1 8O1       0.074950
     38 H141         6.2700     1.7700     2.6120 hc         1 8O1       0.074950
     39 H16          6.0500    -0.6570     0.7070 hc         1 8O1       0.102700
     40 H191         4.1890     0.9330     3.0540 h1         1 8O1       0.055200
     41 H192         4.0430    -0.8250     3.1870 h1         1 8O1       0.055200
     42 H21          3.3010    -2.7060    -4.7170 hn         1 8O1       0.312700
     43 H23          3.9880    -0.0310     0.3670 hn         1 8O1       0.465800
     44 H201        -2.4990    -2.2330     0.3090 h1         1 8O1       0.096200
     45 H202        -2.5010    -2.2320     2.0780 h1         1 8O1       0.096200
     46 C18          4.0750     2.3760    -3.3460 c3         1 8O1       0.092300
     47 H152         6.6570    -0.3930     3.7280 hc         1 8O1       0.074950
     48 H183         5.1430     2.2180    -3.4410 h1         1 8O1       0.054700
     49 H181         3.8900     3.1550    -2.6160 h1         1 8O1       0.054700
     50 H182         3.6670     2.6740    -4.3040 h1         1 8O1       0.054700
@<TRIPOS>BOND
     1     1     4 ar  
     2     1    14 ar  
     3     2    13 2   
     4     2    20 1   
     5     3     6 2   
     6     3    13 1   
     7     3    16 1   
     8     4     5 ar  
     9     4    16 1   
    10     5    11 ar  
    11     5    22 1   
    12     6     7 1   
    13     6    20 1   
    14     7    21 1   
    15     7    23 2   
    16     8    17 1   
    17     8    18 1   
    18     9    10 1   
    19    10    26 1   
    20    11    12 ar  
    21    12    14 ar  
    22    14    26 1   
    23    15    16 2   
    24    15    21 1   
    25    17    18 1   
    26    18    19 1   
    27    46    21 1   
    28    19    22 1   
    29    24    26 2   
    30    25    26 2   
    31     1    27 1   
    32     2    28 1   
    33     8    47 1   
    34     8    29 1   
    35     9    30 1   
    36     9    31 1   
    37     9    32 1   
    38    10    44 1   
    39    10    45 1   
    40    11    33 1   
    41    12    34 1   
    42    13    35 1   
    43    15    36 1   
    44    17    37 1   
    45    17    38 1   
    46    18    39 1   
    47    46    48 1   
    48    46    49 1   
    49    46    50 1   
    50    19    40 1   
    51    19    41 1   
    52    20    42 1   
    53    22    43 1   
@<TRIPOS>SUBSTRUCTURE
     1 8O1         1 TEMP              0 ****  ****    0 ROOT
