@<TRIPOS>MOLECULE
8O1
   50    53     1     0     0
SMALL
bcc


@<TRIPOS>ATOM
      1 C4           0.0000     0.0000     0.0000 ca         1 8O1       0.064000
      2 C5           2.1540    -3.2410    -3.0320 cc         1 8O1      -0.312300
      3 C6           2.2310    -1.2220    -2.0920 cd         1 8O1      -0.063800
      4 C7           1.3920     0.0000     0.0000 ca         1 8O1      -0.144800
      5 C8           2.0850     0.0000     1.2180 ca         1 8O1       0.110600
      6 C10          2.9460    -1.1750    -3.2930 cc         1 8O1      -0.398900
      7 C13          3.5460     0.0380    -3.6790 c          1 8O1       0.647100
      8 C15          6.9730    -0.3380     2.6930 cx         1 8O1      -0.086400
      9 C17         -4.4280    -1.8900     1.1910 c3         1 8O1       0.037900
     10 C20         -2.9040    -1.7560     1.1930 c3         1 8O1       0.002400
     11 C1           1.3800     0.0010     2.4110 ca         1 8O1      -0.231000
     12 C2          -0.0030     0.0010     2.3970 ca         1 8O1       0.054000
     13 C3           1.7450    -2.5370    -1.9550 cd         1 8O1      -0.162000
     14 C9          -0.6900     0.0010     1.1960 ca         1 8O1      -0.221500
     15 C11          2.7480     1.1270    -1.7290 cc         1 8O1      -0.174400
     16 C12          2.1380    -0.0020    -1.2810 cd         1 8O1      -0.028400
     17 C14          6.7320     1.0040     2.0000 cx         1 8O1      -0.086400
     18 C16          5.8470    -0.1980     1.6670 cx         1 8O1      -0.157700
     19 C19          4.2030     0.0010     2.5030 c3         1 8O1       0.239800
     20 N21          2.8810    -2.4310    -3.8510 na         1 8O1       0.475900
     21 N22          3.4350     1.1330    -2.9070 n          1 8O1       0.098000
     22 N23          3.4810     0.0000     1.2290 nu         1 8O1      -0.425600
     23 O24          4.1740     0.0960    -4.7250 o          1 8O1      -0.725500
     24 O25         -2.8000     0.6060    -0.0450 o          1 8O1      -0.591300
     25 O26         -2.8040     0.6070     2.4290 o          1 8O1      -0.591300
     26 S27         -2.4520     0.0010     1.1930 sy         1 8O1       0.876300
     27 H4          -0.5420     0.0000    -0.9380 ha         1 8O1       0.126000
     28 H5           1.9380    -4.2860    -3.2160 h4         1 8O1       0.145000
     29 H151         7.8450    -0.8870     2.3590 hc         1 8O1       0.047200
     30 H173        -4.8340    -1.4140     2.0760 hc         1 8O1       0.011700
     31 H172        -4.8320    -1.4120     0.3070 hc         1 8O1       0.011700
     32 H171        -4.6980    -2.9390     1.1890 hc         1 8O1       0.011700
     33 H1           1.9120     0.0010     3.3550 ha         1 8O1       0.116000
     34 H2          -0.5520     0.0020     3.3310 ha         1 8O1       0.117000
     35 H3           1.1490    -2.9160    -1.1340 ha         1 8O1       0.130000
     36 H11          2.6870     2.0350    -1.1420 h4         1 8O1       0.137000
     37 H142         7.4580     1.2750     1.2430 hc         1 8O1       0.047200
     38 H141         6.2700     1.7700     2.6120 hc         1 8O1       0.047200
     39 H16          6.0500    -0.6570     0.7070 hc         1 8O1       0.075700
     40 H191         4.1890     0.9330     3.0540 h1         1 8O1       0.019200
     41 H192         4.0430    -0.8250     3.1870 h1         1 8O1       0.019200
     42 H21          3.3010    -2.7060    -4.7170 hn         1 8O1       0.117700
     43 H23          3.9880    -0.0310     0.3670 hn         1 8O1       0.324800
     44 H201        -2.4990    -2.2330     0.3090 h1         1 8O1       0.061200
     45 H202        -2.5010    -2.2320     2.0780 h1         1 8O1       0.061200
     46 C18          4.0750     2.3760    -3.3460 c3         1 8O1       0.056300
     47 H152         6.6570    -0.3930     3.7280 hc         1 8O1       0.047200
     48 H183         5.1430     2.2180    -3.4410 h1         1 8O1       0.021700
     49 H181         3.8900     3.1550    -2.6160 h1         1 8O1       0.021700
     50 H182         3.6670     2.6740    -4.3040 h1         1 8O1       0.021700
@<TRIPOS>BOND
     1     1     4 ar  
     2     1    14 ar  
     3     1    27 1   
     4     2    13 2   
     5     2    20 1   
     6     2    28 1   
     7     3     6 2   
     8     3    13 1   
     9     3    16 1   
    10     4     5 ar  
    11     4    16 1   
    12     5    11 ar  
    13     5    22 1   
    14     6     7 1   
    15     6    20 1   
    16     7    21 1   
    17     7    23 2   
    18     8    17 1   
    19     8    18 1   
    20     8    29 1   
    21     8    47 1   
    22     9    10 1   
    23     9    30 1   
    24     9    31 1   
    25     9    32 1   
    26    10    26 1   
    27    10    44 1   
    28    10    45 1   
    29    11    12 ar  
    30    11    33 1   
    31    12    14 ar  
    32    12    34 1   
    33    13    35 1   
    34    14    26 1   
    35    15    16 2   
    36    15    21 1   
    37    15    36 1   
    38    17    18 1   
    39    17    37 1   
    40    17    38 1   
    41    18    19 1   
    42    18    39 1   
    43    19    22 1   
    44    19    40 1   
    45    19    41 1   
    46    20    42 1   
    47    21    46 1   
    48    22    43 1   
    49    24    26 2   
    50    25    26 2   
    51    46    48 1   
    52    46    49 1   
    53    46    50 1   
@<TRIPOS>SUBSTRUCTURE
     1 8O1         1 TEMP              0 ****  ****    0 ROOT
