@<TRIPOS>MOLECULE
molecule
   51    55     1     0     0
SMALL
bcc


@<TRIPOS>ATOM
      1 C4           0.0000     0.0000     0.0000 cc         1 8O4      -0.120300
      2 C5           4.3210    -0.1300    -1.1090 ca         1 8O4      -0.034800
      3 C6           1.7630     0.0670    -1.3220 cd         1 8O4      -0.053800
      4 C7           1.3560     0.0000     0.0000 cd         1 8O4      -0.201300
      5 C8           6.6820    -0.6190    -1.1340 ca         1 8O4      -0.090300
      6 C10          0.6120     0.1610    -2.1290 cc         1 8O4      -0.194900
      7 C13          0.7560     0.2370    -3.5300 c          1 8O4       0.735100
      8 C15          3.8990     4.6400     1.3190 cx         1 8O4      -0.140400
      9 C17          4.1440     3.1300     1.3640 cx         1 8O4      -0.134700
     10 C20          7.8930    -1.2010    -1.8150 c3         1 8O4      -0.145300
     11 C1           6.7930    -0.0230     0.1100 ca         1 8O4      -0.114000
     12 C2           5.6830     0.4770     0.7420 ca         1 8O4      -0.107000
     13 C3           5.4450    -0.6700    -1.7400 ca         1 8O4      -0.107000
     14 C9           4.3970     0.4040     0.1570 ca         1 8O4       0.136600
     15 C11          3.1370     0.0180    -3.2880 cc         1 8O4      -0.020400
     16 C12          3.0920    -0.0200    -1.9270 cd         1 8O4      -0.064400
     17 C14          2.2310     0.0000     1.2300 c3         1 8O4       0.266100
     18 C16          4.9190     4.0010     0.3740 cx         1 8O4      -0.140400
     19 C19          9.5650    -3.4280    -2.2560 c3         1 8O4      -0.233300
     20 N22         -0.4550     0.1170    -1.2860 na         1 8O4      -0.110100
     21 N23          3.4140     0.8160     1.0360 nh         1 8O4      -0.627000
     22 N24          2.0060     0.1480    -4.0400 n          1 8O4      -0.331000
     23 O25         -0.2130     0.3800    -4.2560 o          1 8O4      -0.660500
     24 O26          8.3610    -3.0040     0.0520 o          1 8O4      -0.607300
     25 O27          6.9700    -3.6710    -1.8530 o          1 8O4      -0.607300
     26 S28          8.0760    -2.9420    -1.3380 s6         1 8O4       1.100000
     27 H4          -0.6260    -0.0800     0.8810 h4         1 8O4       0.172000
     28 H152         4.3160     5.2060     2.1430 hc         1 8O4       0.073200
     29 H17          4.7210     2.7900     2.2160 hc         1 8O4       0.089700
     30 H1           7.7630     0.0500     0.5880 ha         1 8O4       0.137000
     31 H2           5.7940     0.9390     1.7160 ha         1 8O4       0.146000
     32 H3           5.3430    -1.1340    -2.7130 ha         1 8O4       0.136000
     33 H11          4.0960    -0.0460    -3.7860 h4         1 8O4       0.156000
     34 H142         1.6650     0.3920     2.0670 h1         1 8O4       0.064200
     35 H141         2.5360    -1.0170     1.4470 h1         1 8O4       0.064200
     36 H162         4.6100     3.9200    -0.6610 hc         1 8O4       0.073200
     37 H161         5.9590     4.1780     0.6200 hc         1 8O4       0.073200
     38 H22         -1.4170     0.1630    -1.5600 hn         1 8O4       0.313700
     39 H7           8.7760    -0.6500    -1.5150 h1         1 8O4       0.096700
     40 H8           7.7720    -1.1320    -2.8890 h1         1 8O4       0.096700
     41 H9           9.6070    -4.5080    -2.3310 h1         1 8O4       0.096367
     42 H10          9.5330    -2.9980    -3.2500 h1         1 8O4       0.096367
     43 H12         10.4440    -3.0680    -1.7350 h1         1 8O4       0.096367
     44 C21          3.0510     2.2190     0.8000 c3         1 8O4       0.207800
     45 C18          2.1540     0.1950    -5.4970 c3         1 8O4       0.087300
     46 H151         2.9670     4.9480     0.8610 hc         1 8O4       0.073200
     47 H211         2.9500     2.3920    -0.2650 h1         1 8O4       0.047700
     48 H212         2.1100     2.4370     1.2920 h1         1 8O4       0.047700
     49 H183         3.2060     0.2530    -5.7510 h1         1 8O4       0.053367
     50 H181         1.7270    -0.7000    -5.9330 h1         1 8O4       0.053367
     51 H182         1.6400     1.0660    -5.8850 h1         1 8O4       0.053367
@<TRIPOS>BOND
     1     1     4 2
     2     1    20 1
     3     2    13 ar
     4     2    14 ar
     5     2    16 1
     6     3     4 1
     7     3     6 2
     8     3    16 1
     9     4    17 1
    10     5    10 1
    11     5    11 ar
    12     5    13 ar
    13     6     7 1
    14     6    20 1
    15     7    22 1
    16     7    23 2
    17     8     9 1
    18     8    18 1
    19     9    44 1
    20     9    18 1
    21    10    26 1
    22    44    21 1
    23    11    12 ar
    24    12    14 ar
    25    14    21 1
    26    15    16 2
    27    15    22 1
    28    17    21 1
    29    45    22 1
    30    19    26 1
    31    24    26 2
    32    25    26 2
    33     1    27 1
    34     8    46 1
    35     8    28 1
    36     9    29 1
    37    44    47 1
    38    44    48 1
    39    11    30 1
    40    12    31 1
    41    13    32 1
    42    15    33 1
    43    17    34 1
    44    17    35 1
    45    18    36 1
    46    18    37 1
    47    45    49 1
    48    45    50 1
    49    45    51 1
    50    20    38 1
    51    10    39 1
    52    10    40 1
    53    19    41 1
    54    19    42 1
    55    19    43 1
@<TRIPOS>SUBSTRUCTURE
     1 8O4         1 TEMP              0 ****  ****    0 ROOT
