@<TRIPOS>MOLECULE
molecule
   75    78     1     0     0
SMALL
bcc


@<TRIPOS>ATOM
      1 C10          0.0000     0.0000     0.0000 ca         1 8O5      -0.131500
      2 O01         -1.9940    -0.0090     6.1200 o          1 8O5      -0.627100
      3 C02         -0.7760    -0.0130     6.1160 c          1 8O5       0.671300
      4 C03         -0.0480    -0.0130     4.8460 ce         1 8O5      -0.250200
      5 C05         -0.7260    -0.0070     3.6800 cf         1 8O5      -0.023200
      6 C07          0.0060    -0.0060     2.4030 ca         1 8O5      -0.079800
      7 C16          1.4050    -0.0120     2.3940 ca         1 8O5      -0.107000
      8 C14          2.0830     0.0000     1.1940 ca         1 8O5      -0.131500
      9 C12          1.3830     0.0000     0.0000 ca         1 8O5      -0.117000
     10 C08         -0.6930    -0.0010     1.1920 ca         1 8O5      -0.107000
     11 N18         -0.0990    -0.0190     7.2810 ns         1 8O5      -0.553900
     12 C20         -0.8230     0.0900     8.5500 c3         1 8O5       0.040700
     13 C22         -0.4470    -1.0860     9.4540 c3         1 8O5      -0.057400
     14 C25         -0.8920    -2.3960     8.8000 cx         1 8O5      -0.137700
     15 C26         -0.5160    -3.7000     9.5040 cx         1 8O5      -0.137400
     16 C34         -1.9670    -3.2140     9.5170 cx         1 8O5      -0.137400
     17 C36         -0.4550     1.3840     9.2290 c          1 8O5       0.642100
     18 O37          0.3340     2.1410     8.7040 o          1 8O5      -0.610100
     19 N38         -1.0020     1.7000    10.4190 ns         1 8O5      -0.575900
     20 C40         -0.7300     3.0050    11.0270 c3         1 8O5       0.124700
     21 C42         -1.7670     4.0200    10.5420 c3         1 8O5      -0.083400
     22 C45         -1.4260     5.4030    11.1000 c3         1 8O5      -0.164700
     23 C47         -0.1050     5.8870    10.5460 c          1 8O5       0.709500
     24 O48          0.9850     5.5130    10.9230 o          1 8O5      -0.646500
     25 N49         -0.3140     6.7910     9.5730 ns         1 8O5      -0.581900
     26 C51         -1.7470     7.0140     9.3520 c3         1 8O5       0.093000
     27 C54         -2.4520     6.4520    10.6100 c3         1 8O5      -0.092400
     28 C57         -0.8100     2.8840    12.5500 c3         1 8O5       0.060100
     29 O58         -2.1170     2.4470    12.9260 oh         1 8O5      -0.585800
     30 C66          0.2120     1.8840    13.0280 c          1 8O5       0.630100
     31 O67         -0.1500     0.8510    13.5500 o          1 8O5      -0.605100
     32 N68          1.5270     2.1380    12.8750 ns         1 8O5      -0.578900
     33 C70          2.5200     1.1650    13.3400 c3         1 8O5       0.162300
     34 C73          3.9040     1.6850    13.0510 ca         1 8O5      -0.118300
     35 C74          4.5610     2.4580    13.9910 ca         1 8O5      -0.109000
     36 C76          4.5190     1.3850    11.8510 ca         1 8O5      -0.109000
     37 C78          5.7930     1.8570    11.5900 ca         1 8O5      -0.129500
     38 C80          6.4490     2.6290    12.5290 ca         1 8O5      -0.119000
     39 C82          5.8310     2.9350    13.7270 ca         1 8O5      -0.129500
     40 H1          -0.5400     0.0020    -0.9390 ha         1 8O5       0.132000
     41 H2           1.0350    -0.0190     4.8420 ha         1 8O5       0.132000
     42 H3          -1.8090    -0.0010     3.6840 ha         1 8O5       0.158000
     43 H4           1.9530    -0.0120     3.3280 ha         1 8O5       0.135000
     44 H5           3.1670    -0.0020     1.1860 ha         1 8O5       0.132000
     45 H6           1.9220     0.0050    -0.9400 ha         1 8O5       0.130000
     46 H7          -1.7770    -0.0010     1.1900 ha         1 8O5       0.135000
     47 H8           0.9010    -0.0510     7.2770 hn         1 8O5       0.326500
     48 H9          -1.8900     0.0720     8.3600 h1         1 8O5       0.114700
     49 H10         -0.9390    -0.9760    10.4130 hc         1 8O5       0.056700
     50 H11          0.6270    -1.1010     9.5990 hc         1 8O5       0.056700
     51 H12         -0.9210    -2.4560     7.7190 hc         1 8O5       0.091700
     52 H13         -0.3100    -4.5410     8.8520 hc         1 8O5       0.074700
     53 H14          0.0220    -3.5890    10.4380 hc         1 8O5       0.074700
     54 H15         -2.6480    -3.7580     8.8730 hc         1 8O5       0.074700
     55 H16         -2.3150    -2.8060    10.4580 hc         1 8O5       0.074700
     56 H17         -1.6280     1.0600    10.8670 hn         1 8O5       0.336500
     57 H18          0.2610     3.3370    10.7420 h1         1 8O5       0.112700
     58 H19         -1.7590     4.0560     9.4590 hc         1 8O5       0.067700
     59 H20         -2.7510     3.7250    10.8860 hc         1 8O5       0.067700
     60 H21         -1.3960     5.3840    12.1820 hc         1 8O5       0.074700
     61 H22          0.4150     7.2530     9.0650 hn         1 8O5       0.341500
     62 H23         -2.0770     6.4800     8.4690 h1         1 8O5       0.048700
     63 H24         -1.9490     8.0740     9.2530 h1         1 8O5       0.048700
     64 H25         -3.3910     5.9790    10.3480 hc         1 8O5       0.062200
     65 H26         -2.5940     7.2280    11.3520 hc         1 8O5       0.062200
     66 H27         -0.6090     3.8490    13.0000 h1         1 8O5       0.060700
     67 H28         -2.2870     2.6970    13.8190 ho         1 8O5       0.414000
     68 H29          1.8260     3.0100    12.4840 hn         1 8O5       0.333500
     69 H30          2.3720     0.2240    12.8240 h1         1 8O5       0.056700
     70 H31          2.4050     1.0150    14.4060 h1         1 8O5       0.056700
     71 H32          4.0770     2.6980    14.9290 ha         1 8O5       0.133500
     72 H33          4.0040     0.7790    11.1150 ha         1 8O5       0.133500
     73 H34          6.2770     1.6190    10.6500 ha         1 8O5       0.131500
     74 H35          7.4460     3.0010    12.3240 ha         1 8O5       0.130000
     75 H36          6.3460     3.5410    14.4630 ha         1 8O5       0.131500
@<TRIPOS>BOND
     1    37    38 ar  
     2    37    36 ar  
     3    38    39 ar  
     4    36    34 ar  
     5    39    35 ar  
     6    34    35 ar  
     7    34    33 1   
     8    26    27 1   
     9    26    25 1   
    10    33    32 1   
    11    27    22 1   
    12    25    23 1   
    13    31    30 2   
    14    32    30 1   
    15    30    28 1   
    16    23    22 1   
    17    23    24 2   
    18    22    21 1   
    19    21    20 1   
    20    20    28 1   
    21    20    19 1   
    22    18    17 2   
    23    28    29 1   
    24     8     7 ar  
    25     8     9 ar  
    26     7     6 ar  
    27    19    17 1   
    28    17    12 1   
    29     9     1 ar  
    30     6     5 1   
    31     6    10 ar  
    32     5     4 2   
    33     2     3 2   
    34     1    10 ar  
    35     4     3 1   
    36     3    11 1   
    37    11    12 1   
    38    12    13 1   
    39    13    14 1   
    40    14    15 1   
    41    14    16 1   
    42    15    16 1   
    43     1    40 1   
    44     4    41 1   
    45     5    42 1   
    46     7    43 1   
    47     8    44 1   
    48     9    45 1   
    49    10    46 1   
    50    11    47 1   
    51    12    48 1   
    52    13    49 1   
    53    13    50 1   
    54    14    51 1   
    55    15    52 1   
    56    15    53 1   
    57    16    54 1   
    58    16    55 1   
    59    19    56 1   
    60    20    57 1   
    61    21    58 1   
    62    21    59 1   
    63    22    60 1   
    64    25    61 1   
    65    26    62 1   
    66    26    63 1   
    67    27    64 1   
    68    27    65 1   
    69    28    66 1   
    70    29    67 1   
    71    32    68 1   
    72    33    69 1   
    73    33    70 1   
    74    35    71 1   
    75    36    72 1   
    76    37    73 1   
    77    38    74 1   
    78    39    75 1   
@<TRIPOS>SUBSTRUCTURE
     1 8O5         1 TEMP              0 ****  ****    0 ROOT
