@<TRIPOS>MOLECULE
8O5
   75    80     1     0     0
SMALL
bcc


@<TRIPOS>ATOM
      1 C10          0.0000     0.0000     0.0000 c2         1 8O5      -0.067000
      2 O01         -1.9940    -0.0090     6.1200 o          1 8O5      -0.452000
      3 C02         -0.7760    -0.0130     6.1160 c3         1 8O5       0.356000
      4 C03         -0.0480    -0.0130     4.8460 c2         1 8O5      -0.141000
      5 C05         -0.7260    -0.0070     3.6800 c2         1 8O5       0.014000
      6 C07          0.0060    -0.0060     2.4030 c3         1 8O5       0.000000
      7 C16          1.4050    -0.0120     2.3940 c2         1 8O5      -0.155500
      8 C14          2.0830     0.0000     1.1940 c2         1 8O5      -0.067000
      9 C12          1.3830     0.0000     0.0000 c2         1 8O5      -0.138000
     10 C08         -0.6930    -0.0010     1.1920 c2         1 8O5      -0.155500
     11 N18         -0.0990    -0.0190     7.2810 n7         1 8O5       0.014000
     12 C20         -0.8230     0.0900     8.5500 c3         1 8O5      -0.088000
     13 C22         -0.4470    -1.0860     9.4540 c3         1 8O5      -0.079000
     14 C25         -0.8920    -2.3960     8.8000 cx         1 8O5      -0.165000
     15 C26         -0.5160    -3.7000     9.5040 cx         1 8O5      -0.154500
     16 C34         -1.9670    -3.2140     9.5170 cx         1 8O5      -0.154500
     17 C36         -0.4550     1.3840     9.2290 c2         1 8O5       0.203000
     18 O37          0.3340     2.1410     8.7040 o          1 8O5      -0.410000
     19 N38         -1.0020     1.7000    10.4190 ns         1 8O5       0.012000
     20 C40         -0.7300     3.0050    11.0270 c3         1 8O5      -0.074000
     21 C42         -1.7670     4.0200    10.5420 c3         1 8O5      -0.107000
     22 C45         -1.4260     5.4030    11.1000 c3         1 8O5      -0.132000
     23 C47         -0.1050     5.8870    10.5460 c2         1 8O5       0.236000
     24 O48          0.9850     5.5130    10.9230 o          1 8O5      -0.410000
     25 N49         -0.3140     6.7910     9.5730 ns         1 8O5       0.002000
     26 C51         -1.7470     7.0140     9.3520 c3         1 8O5      -0.079000
     27 C54         -2.4520     6.4520    10.6100 c3         1 8O5      -0.107000
     28 C57         -0.8100     2.8840    12.5500 c3         1 8O5       0.043000
     29 O58         -2.1170     2.4470    12.9260 oh         1 8O5      -0.295000
     30 C66          0.2120     1.8840    13.0280 c2         1 8O5       0.177000
     31 O67         -0.1500     0.8510    13.5500 o          1 8O5      -0.405000
     32 N68          1.5270     2.1380    12.8750 ns         1 8O5       0.001000
     33 C70          2.5200     1.1650    13.3400 c3         1 8O5      -0.010000
     34 C73          3.9040     1.6850    13.0510 ca         1 8O5      -0.121000
     35 C74          4.5610     2.4580    13.9910 ca         1 8O5      -0.080000
     36 C76          4.5190     1.3850    11.8510 ca         1 8O5      -0.080000
     37 C78          5.7930     1.8570    11.5900 ca         1 8O5      -0.100500
     38 C80          6.4490     2.6290    12.5290 ca         1 8O5      -0.090000
     39 C82          5.8310     2.9350    13.7270 ca         1 8O5      -0.100500
     40 H1          -0.5400     0.0020    -0.9390 ha         1 8O5       0.102500
     41 H2          -0.5180    -0.8870     5.2820 DU         1 8O5       0.017000
     42 H3          -0.2640    -0.8820     3.2390 DU         1 8O5       0.091000
     43 H4           1.9530    -0.0120     3.3280 ha         1 8O5       0.120000
     44 H5           3.1670    -0.0020     1.1860 ha         1 8O5       0.102500
     45 H6           1.9220     0.0050    -0.9400 ha         1 8O5       0.104000
     46 H7          -1.7770    -0.0010     1.1910 ha         1 8O5       0.120000
     47 H8           0.8990    -0.0980     7.2790 hn         1 8O5       0.103000
     48 H9          -1.8900     0.0720     8.3600 h1         1 8O5       0.127000
     49 H10         -0.9390    -0.9760    10.4130 hc         1 8O5       0.069000
     50 H11          0.6270    -1.1010     9.5990 hc         1 8O5       0.069000
     51 H12         -0.9220    -2.4560     7.7190 hc         1 8O5       0.100000
     52 H13          0.0230    -3.5890    10.4380 hc         1 8O5       0.086250
     53 H14         -0.3100    -4.5410     8.8520 hc         1 8O5       0.086250
     54 H15         -2.6480    -3.7580     8.8730 hc         1 8O5       0.086250
     55 H16         -2.3150    -2.8060    10.4580 hc         1 8O5       0.086250
     56 H17         -1.6310     1.0620    10.8660 hn         1 8O5       0.112000
     57 H18          0.2610     3.3370    10.7420 h1         1 8O5       0.132000
     58 H19         -2.7510     3.7250    10.8860 hc         1 8O5       0.076500
     59 H20         -1.7590     4.0560     9.4590 hc         1 8O5       0.076500
     60 H21         -1.3960     5.3840    12.1820 hc         1 8O5       0.091000
     61 H22          0.4150     7.2530     9.0650 hn         1 8O5       0.110000
     62 H23         -2.0770     6.4800     8.4690 h1         1 8O5       0.058500
     63 H24         -1.9490     8.0740     9.2530 h1         1 8O5       0.058500
     64 H25         -3.3910     5.9790    10.3480 hc         1 8O5       0.069500
     65 H26         -2.5940     7.2280    11.3520 hc         1 8O5       0.069500
     66 H27         -0.6090     3.8490    13.0000 h1         1 8O5       0.070000
     67 H28         -2.2870     2.6980    13.8190 ho         1 8O5       0.201000
     68 H29          1.8260     3.0130    12.4920 hn         1 8O5       0.111000
     69 H30          2.4050     1.0150    14.4060 h1         1 8O5       0.066000
     70 H31          2.3720     0.2240    12.8240 h1         1 8O5       0.066000
     71 H32          4.0770     2.6980    14.9290 ha         1 8O5       0.107000
     72 H33          4.0040     0.7790    11.1150 ha         1 8O5       0.107000
     73 H34          6.2770     1.6190    10.6500 ha         1 8O5       0.104500
     74 H35          7.4460     3.0010    12.3240 ha         1 8O5       0.103000
     75 H36          6.3460     3.5410    14.4630 ha         1 8O5       0.104500
@<TRIPOS>BOND
     1     1     9 1   
     2     1    10 1   
     3     1    40 1   
     4     2     3 1   
     5     3     4 1   
     6     3    11 1   
     7     3    41 1   
     8     4     5 1   
     9     4    41 1   
    10     5     6 1   
    11     5    42 1   
    12     6     7 1   
    13     6    10 1   
    14     6    42 1   
    15     7     8 1   
    16     7    43 1   
    17     8     9 1   
    18     8    44 1   
    19     9    45 1   
    20    10    46 1   
    21    11    12 1   
    22    11    47 1   
    23    12    13 1   
    24    12    17 1   
    25    12    48 1   
    26    13    14 1   
    27    13    49 1   
    28    13    50 1   
    29    14    15 1   
    30    14    16 1   
    31    14    51 1   
    32    15    16 1   
    33    15    52 1   
    34    15    53 1   
    35    16    54 1   
    36    16    55 1   
    37    17    18 1   
    38    17    19 1   
    39    19    20 1   
    40    19    56 1   
    41    20    21 1   
    42    20    28 1   
    43    20    57 1   
    44    21    22 1   
    45    21    58 1   
    46    21    59 1   
    47    22    23 1   
    48    22    27 1   
    49    22    60 1   
    50    23    24 1   
    51    23    25 1   
    52    25    26 1   
    53    25    61 1   
    54    26    27 1   
    55    26    62 1   
    56    26    63 1   
    57    27    64 1   
    58    27    65 1   
    59    28    29 1   
    60    28    30 1   
    61    28    66 1   
    62    29    67 1   
    63    30    31 1   
    64    30    32 1   
    65    32    33 1   
    66    32    68 1   
    67    33    34 1   
    68    33    69 1   
    69    33    70 1   
    70    34    35 1   
    71    34    36 1   
    72    35    39 1   
    73    35    71 1   
    74    36    37 1   
    75    36    72 1   
    76    37    38 1   
    77    37    73 1   
    78    38    39 1   
    79    38    74 1   
    80    39    75 1   
@<TRIPOS>SUBSTRUCTURE
     1 8O5         1 TEMP              0 ****  ****    0 ROOT
