@<TRIPOS>MOLECULE
molecule
   56    59     1     0     0
SMALL
bcc


@<TRIPOS>ATOM
      1 C1           0.0000     0.0000     0.0000 c3         1 8O7       0.080800
      2 N1           1.4700     0.0000     0.0000 nz         1 8O7      -0.809600
      3 C2          -0.5100     0.0000     1.4430 c3         1 8O7       0.221800
      4 N3          -1.9750    -0.0010     1.4420 n7         1 8O7      -0.912100
      5 S4          -2.8020    -0.3720     2.8280 sy         1 8O7       1.414200
      6 O5          -4.1830    -0.2530     2.5150 o          1 8O7      -0.608300
      7 O6          -2.2210    -1.5650     3.3360 o          1 8O7      -0.608300
      8 C7          -2.4480     0.8930     4.0030 ca         1 8O7      -0.336500
      9 C8          -1.3630     0.7600     4.8520 ca         1 8O7      -0.029500
     10 C9          -1.0820     1.7480     5.7730 ca         1 8O7      -0.144000
     11 C10         -1.8900     2.8810     5.8470 cp         1 8O7       0.045000
     12 C11         -2.9800     3.0090     4.9890 ca         1 8O7      -0.144000
     13 C12         -3.2510     2.0170     4.0680 ca         1 8O7      -0.029500
     14 C13         -1.5900     3.9450     6.8370 cp         1 8O7      -0.065000
     15 C14         -0.4970     3.8190     7.6900 ca         1 8O7      -0.106500
     16 C15         -0.2230     4.8130     8.6090 ca         1 8O7      -0.108500
     17 C16         -1.0320     5.9330     8.6810 ca         1 8O7      -0.067300
     18 C17         -2.1190     6.0630     7.8350 ca         1 8O7      -0.108500
     19 C18         -2.3990     5.0770     6.9100 ca         1 8O7      -0.106500
     20 C19         -0.7290     7.0150     9.6850 c3         1 8O7       0.057000
     21 S20          0.3800     8.2360     8.9410 ss         1 8O7      -0.193300
     22 C21          0.5620     9.3490    10.2940 cc         1 8O7       0.510800
     23 N22         -0.0640     9.1000    11.4260 nd         1 8O7      -0.676300
     24 C23          0.0450     9.9130    12.4780 cd         1 8O7       0.180400
     25 C24          0.8180    11.0340    12.3910 cc         1 8O7      -0.268400
     26 C25          1.4900    11.3080    11.1850 c          1 8O7       0.701700
     27 N26          1.3520    10.4500    10.1530 ns         1 8O7      -0.430400
     28 O27          2.1890    12.3020    11.0770 o          1 8O7      -0.632500
     29 C28          0.7860    11.7930    13.6980 c3         1 8O7      -0.010200
     30 C29         -0.4400    11.2380    14.4540 c3         1 8O7      -0.083400
     31 C30         -0.5770     9.8220    13.8550 c3         1 8O7      -0.028200
     32 H1          -0.3610    -0.8850    -0.5110 hx         1 8O7       0.120200
     33 H2          -0.3610     0.8850    -0.5110 hx         1 8O7       0.120200
     34 H3           1.8030     0.0000    -0.9440 hn         1 8O7       0.461467
     35 H4           1.8030     0.8170     0.4720 hn         1 8O7       0.461467
     36 H6          -0.1490     0.8850     1.9540 h1         1 8O7       0.066200
     37 H7          -0.1490    -0.8840     1.9540 h1         1 8O7       0.066200
     38 H8          -2.4750     0.1910     0.5970 hn         1 8O7       0.463800
     39 H9          -0.7360    -0.1200     4.7940 ha         1 8O7       0.148000
     40 H10         -0.2320     1.6430     6.4370 ha         1 8O7       0.149500
     41 H11         -3.6110     3.8880     5.0410 ha         1 8O7       0.149500
     42 H12         -4.0980     2.1160     3.4010 ha         1 8O7       0.148000
     43 H13          0.1370     2.9430     7.6340 ha         1 8O7       0.136500
     44 H14          0.6270     4.7160     9.2730 ha         1 8O7       0.147000
     45 H15         -2.7490     6.9430     7.8950 ha         1 8O7       0.147000
     46 H16         -3.2500     5.1800     6.2480 ha         1 8O7       0.136500
     47 H17         -0.2530     6.5780    10.5550 h1         1 8O7       0.095200
     48 H18         -1.6510     7.4990     9.9840 h1         1 8O7       0.095200
     49 H19          0.6630    12.8530    13.5120 hc         1 8O7       0.064200
     50 H20         -0.2260    11.1750    15.5140 hc         1 8O7       0.059200
     51 H21         -0.0380     9.1050    14.4630 hc         1 8O7       0.065200
     52 H5           1.8270    10.6220     9.2880 hn         1 8O7       0.344500
     53 H22          1.6910    11.6050    14.2620 hc         1 8O7       0.064200
     54 H23         -1.3190    11.8270    14.2220 hc         1 8O7       0.059200
     55 H24         -1.6220     9.5480    13.7770 hc         1 8O7       0.065200
     56 H131         1.8030    -0.8180     0.4710 hn         1 8O7       0.461467
@<TRIPOS>BOND
     1     6     5 2
     2     5     7 2
     3     5     4 1
     4     5     8 1
     5     9     8 ar
     6     9    10 ar
     7    28    26 2
     8     4     3 1
     9     8    13 ar
    10    10    11 ar
    11    27    26 1
    12    27    22 1
    13    13    12 ar
    14    26    25 1
    15    11    14 1
    16    11    12 ar
    17    21    22 1
    18    21    20 1
    19    15    14 ar
    20    15    16 ar
    21    14    19 ar
    22     3     1 1
    23    22    23 2
    24    16    17 ar
    25    19    18 ar
    26     1     2 1
    27    17    18 ar
    28    17    20 1
    29    25    29 1
    30    25    24 2
    31    29    30 1
    32    23    24 1
    33    24    31 1
    34    30    31 1
    35     1    32 1
    36     1    33 1
    37     2    34 1
    38     2    35 1
    39     3    36 1
    40     3    37 1
    41     4    38 1
    42     9    39 1
    43    10    40 1
    44    12    41 1
    45    13    42 1
    46    15    43 1
    47    16    44 1
    48    18    45 1
    49    19    46 1
    50    20    47 1
    51    20    48 1
    52    29    49 1
    53    30    50 1
    54    31    51 1
    55    27    52 1
    56    29    53 1
    57    30    54 1
    58    31    55 1
    59    56     2 1
@<TRIPOS>SUBSTRUCTURE
     1 8O7         1 TEMP              0 ****  ****    0 ROOT
