@<TRIPOS>MOLECULE
8O8
   49    52     1     0     0
SMALL
bcc


@<TRIPOS>ATOM
      1 C1           0.0000     0.0000     0.0000 c3         1 8O8       0.103300
      2 C2           1.5070     0.0000     0.0000 ca         1 8O8      -0.115300
      3 C4           3.5880    -0.0080    -1.1940 ca         1 8O8      -0.113000
      4 C5           4.3060    -0.0010    -0.0370 ca         1 8O8      -0.061000
      5 C6           3.6320    -0.0000     1.1950 ca         1 8O8      -0.167300
      6 C7           4.3190     0.0070     2.4190 ca         1 8O8       0.417200
      7 C8           2.3190     0.0020     3.5910 ca         1 8O8       0.406200
      8 C9           1.5630     0.0010     2.4590 ca         1 8O8      -0.244300
      9 C11         -0.8600     1.9320     1.2100 c          1 8O8       0.621700
     10 C12         -1.2510     3.3570     1.2670 ca         1 8O8      -0.142600
     11 C13         -2.3680     3.8060     0.5600 ca         1 8O8      -0.078000
     12 C14         -2.7270     5.1360     0.6170 ca         1 8O8      -0.111000
     13 C15         -1.9830     6.0260     1.3720 ca         1 8O8      -0.079000
     14 C17         -0.5070     4.2570     2.0300 ca         1 8O8      -0.025300
     15 C18          0.6970     3.7810     2.8000 c3         1 8O8      -0.029400
     16 C19          1.9250     4.6840     2.5120 c3         1 8O8      -0.060400
     17 C21          0.4820     3.9600     4.3170 c3         1 8O8       0.150800
     18 O           -0.8750     1.2570     2.2210 o          1 8O8      -0.647100
     19 N2           1.7620     4.4130     4.8900 n7         1 8O8      -0.583200
     20 C20          2.7610     4.4970     3.8030 c3         1 8O8       0.147800
     21 C16         -0.8740     5.5870     2.0740 ca         1 8O8      -0.111000
     22 N           -0.4880     1.3810     0.0380 n          1 8O8      -0.145800
     23 C           -0.5710     2.1630    -1.1980 c3         1 8O8       0.071300
     24 C10          2.2130     0.0000     1.2120 ca         1 8O8      -0.000000
     25 N1           3.6460     0.0080     3.5460 nb         1 8O8      -0.582000
     26 C3           2.1940    -0.0070    -1.1760 ca         1 8O8      -0.079000
     27 H1          -0.3610    -0.5350     0.8700 h1         1 8O8       0.042700
     28 H2          -0.3610    -0.4860    -0.8980 h1         1 8O8       0.042700
     29 H3           4.1090    -0.0130    -2.1440 ha         1 8O8       0.104000
     30 H4           5.3890    -0.0020    -0.0670 ha         1 8O8       0.107000
     31 H5           5.4020     0.0120     2.4340 h4         1 8O8      -0.018900
     32 H6           1.8250     0.0030     4.5540 h4         1 8O8      -0.014900
     33 H7           0.4810    -0.0040     2.5180 ha         1 8O8       0.176000
     34 H8          -2.9520     3.1110    -0.0320 ha         1 8O8       0.108000
     35 H9          -3.5940     5.4850     0.0700 ha         1 8O8       0.106000
     36 H10         -2.2680     7.0700     1.4120 ha         1 8O8       0.103000
     37 H11          0.9230     2.7470     2.5680 hc         1 8O8       0.063700
     38 H12          1.6240     5.7180     2.3950 hc         1 8O8       0.024200
     39 H13          2.4700     4.3300     1.6460 hc         1 8O8       0.024200
     40 H14         -0.2840     4.7050     4.4930 h1         1 8O8       0.022700
     41 H15          0.1940     3.0150     4.7610 h1         1 8O8       0.022700
     42 H16          1.6420     5.3170     5.3030 hn         1 8O8       0.245800
     43 H18          3.3350     3.5800     3.7490 h1         1 8O8       0.021200
     44 H19          3.4120     5.3490     3.9560 h1         1 8O8       0.021200
     45 H20         -0.2970     6.2880     2.6650 ha         1 8O8       0.114000
     46 H21         -1.6110     2.3130    -1.4610 h1         1 8O8       0.014033
     47 H22         -0.0700     1.6300    -1.9970 h1         1 8O8       0.014033
     48 H23         -0.0940     3.1240    -1.0500 h1         1 8O8       0.014033
     49 H24          1.6490    -0.0120    -2.1120 ha         1 8O8       0.102000
@<TRIPOS>BOND
     1     1     2 1   
     2     1    22 1   
     3     1    27 1   
     4     1    28 1   
     5     2    24 ar  
     6     2    26 ar  
     7     3     4 ar  
     8     3    26 ar  
     9     3    29 1   
    10     4     5 ar  
    11     4    30 1   
    12     5     6 ar  
    13     5    24 ar  
    14     6    25 ar  
    15     6    31 1   
    16     7     8 ar  
    17     7    25 ar  
    18     7    32 1   
    19     8    24 ar  
    20     8    33 1   
    21     9    10 1   
    22     9    18 2   
    23     9    22 1   
    24    10    11 ar  
    25    10    14 ar  
    26    11    12 ar  
    27    11    34 1   
    28    12    13 ar  
    29    12    35 1   
    30    13    21 ar  
    31    13    36 1   
    32    14    15 1   
    33    14    21 ar  
    34    15    16 1   
    35    15    17 1   
    36    15    37 1   
    37    16    20 1   
    38    16    38 1   
    39    16    39 1   
    40    17    19 1   
    41    17    40 1   
    42    17    41 1   
    43    19    20 1   
    44    19    42 1   
    45    20    43 1   
    46    20    44 1   
    47    21    45 1   
    48    22    23 1   
    49    23    46 1   
    50    23    47 1   
    51    23    48 1   
    52    26    49 1   
@<TRIPOS>SUBSTRUCTURE
     1 8O8         1 TEMP              0 ****  ****    0 ROOT
