@<TRIPOS>MOLECULE
molecule
   23    24     1     0     0
SMALL
bcc


@<TRIPOS>ATOM
      1 N            0.0000     0.0000     0.0000 nb         1 8OB      -0.734000
      2 C            2.0320     0.0000     1.1950 ca         1 8OB      -0.105900
      3 O            1.9940    -0.0000    -1.1790 os         1 8OB      -0.340400
      4 C1           1.3230     0.0000     0.0000 ca         1 8OB       0.661600
      5 C10          1.3350    -0.0010     2.3920 ca         1 8OB      -0.054000
      6 C2           1.2730     0.1230    -2.3250 ca         1 8OB       0.096100
      7 C3           0.6690     1.3320    -2.6370 ca         1 8OB      -0.110000
      8 C4          -0.0650     1.4580    -3.8010 ca         1 8OB      -0.144000
      9 C5          -0.1980     0.3750    -4.6580 ca         1 8OB       0.108100
     10 C6           0.4070    -0.8340    -4.3460 ca         1 8OB      -0.144000
     11 C7           1.1450    -0.9580    -3.1850 ca         1 8OB      -0.110000
     12 C8          -0.6920    -0.0000     1.1230 ca         1 8OB       0.469200
     13 C9          -0.0540    -0.0000     2.3490 ca         1 8OB      -0.131900
     14 O1          -0.9200     0.4970    -5.8030 oh         1 8OB      -0.521100
     15 Cl           3.7680    -0.0010     1.1890 cl         1 8OB      -0.068400
     16 Cl1         -0.9770    -0.0000     3.8190 cl         1 8OB      -0.085400
     17 H6           1.8600    -0.0010     3.3400 ha         1 8OB       0.169000
     18 H            0.7720     2.1780    -1.9680 ha         1 8OB       0.145000
     19 H1          -0.5370     2.4020    -4.0440 ha         1 8OB       0.145500
     20 H3           0.3060    -1.6790    -5.0160 ha         1 8OB       0.145500
     21 H4           1.6170    -1.9020    -2.9420 ha         1 8OB       0.145000
     22 H5          -1.7750    -0.0000     1.0840 h4         1 8OB       0.042100
     23 H2          -1.8190     0.2730    -5.6320 ho         1 8OB       0.421000
@<TRIPOS>BOND
     1    16    13 1
     2    13     5 ar
     3    13    12 ar
     4     5     2 ar
     5    12     1 ar
     6     2    15 1
     7     2     4 ar
     8     1     4 ar
     9     4     3 1
    10     3     6 1
    11     6     7 ar
    12     6    11 ar
    13     7     8 ar
    14    11    10 ar
    15     8     9 ar
    16    10     9 ar
    17     9    14 1
    18     5    17 1
    19     7    18 1
    20     8    19 1
    21    10    20 1
    22    11    21 1
    23    12    22 1
    24    14    23 1
@<TRIPOS>SUBSTRUCTURE
     1 8OB         1 TEMP              0 ****  ****    0 ROOT
