@<TRIPOS>MOLECULE
molecule
   40    42     1     0     0
SMALL
bcc


@<TRIPOS>ATOM
      1 N1           0.0000     0.0000     0.0000 nb         1 8OD      -0.816000
      2 C2           1.3190     0.0000     0.0000 ca         1 8OD       0.640900
      3 N3           2.0220     0.0000     1.1140 nb         1 8OD      -0.768000
      4 C4           1.4170     0.0010     2.2970 ca         1 8OD       0.562200
      5 C5           0.0210     0.0010     2.3430 ca         1 8OD      -0.352000
      6 C6          -0.6850    -0.0000     1.1420 ca         1 8OD       0.699200
      7 N6          -2.0730     0.0010     1.1360 nv         1 8OD      -1.032500
      8 N7          -0.3390     0.0010     3.6880 ns         1 8OD      -0.447100
      9 C8           0.7900     0.0020     4.4240 c          1 8OD       0.798500
     10 O8           0.8360     0.0010     5.6400 o          1 8OD      -0.609500
     11 N9           1.8610     0.0010     3.6080 n          1 8OD      -0.419300
     12 PA           4.4370    -3.3000     8.6890 p5         1 8OD       1.435800
     13 PB           3.8120    -6.1430     9.2440 p5         1 8OD       1.319900
     14 C1'          3.2620     0.0000     4.0350 c3         1 8OD       0.323500
     15 O1A          3.2260    -2.8540     9.4150 o          1 8OD      -0.862500
     16 O1B          4.4360    -7.4960     8.6350 o          1 8OD      -0.884500
     17 C2'          3.6060     1.3150     4.7800 c3         1 8OD       0.073100
     18 O2'          3.9920     2.3370     3.8590 oh         1 8OD      -0.589800
     19 O2A          5.7390    -3.0030     9.5870 o          1 8OD      -0.862500
     20 O2B          4.2460    -5.9890    10.6510 o          1 8OD      -0.884500
     21 C3'          4.8050     0.8850     5.6600 c3         1 8OD       0.091100
     22 O3'          6.0390     1.2470     5.0370 oh         1 8OD      -0.591800
     23 O3A          4.3340    -4.8790     8.3960 os         1 8OD      -0.713800
     24 O3B          2.2040    -6.2200     9.1850 o          1 8OD      -0.884500
     25 C4'          4.6770    -0.6480     5.7500 c3         1 8OD       0.120100
     26 O4'          3.4900    -1.0200     5.0310 os         1 8OD      -0.351600
     27 C5'          4.5540    -1.0750     7.2140 c3         1 8OD       0.234400
     28 O5'          4.5530    -2.5010     7.2950 os         1 8OD      -0.585200
     29 H2           1.8420     0.0000    -0.9490 h5         1 8OD       0.038100
     30 HN6         -2.5760    -0.3320     1.9350 hn         1 8OD       0.425800
     31 HN6A        -2.5700     0.3710     0.3500 hn         1 8OD       0.425800
     32 HN7         -1.2730    -0.0070     4.0460 hn         1 8OD       0.341500
     33 H1'          3.9250    -0.1410     3.1900 h2         1 8OD       0.096700
     34 H2'          2.7740     1.6350     5.3950 h1         1 8OD       0.069700
     35 HO2'         3.5530     3.1420     4.0800 ho         1 8OD       0.381000
     36 H3'          4.7270     1.3280     6.6450 h1         1 8OD       0.052700
     37 HO3'         6.5250     1.8170     5.6100 ho         1 8OD       0.387000
     38 H4'          5.5420    -1.1160     5.2960 h1         1 8OD       0.074700
     39 H5'          5.3920    -0.6820     7.7770 h1         1 8OD       0.030200
     40 H5'A         3.6290    -0.6890     7.6260 h1         1 8OD       0.030200
@<TRIPOS>BOND
     1     1     2 ar
     2     1     6 ar
     3     2     3 ar
     4     3     4 ar
     5     4     5 ar
     6     4    11 1
     7     5     6 ar
     8     5     8 1
     9     6     7 1
    10     8     9 1
    11     9    10 2
    12     9    11 1
    13    11    14 1
    14    12    15 1
    15    12    19 1
    16    12    23 1
    17    12    28 1
    18    13    16 1
    19    13    20 1
    20    13    23 1
    21    13    24 1
    22    14    17 1
    23    14    26 1
    24    17    18 1
    25    17    21 1
    26    21    22 1
    27    21    25 1
    28    25    26 1
    29    25    27 1
    30    27    28 1
    31     2    29 1
    32     7    30 1
    33     7    31 1
    34     8    32 1
    35    14    33 1
    36    17    34 1
    37    18    35 1
    38    21    36 1
    39    22    37 1
    40    25    38 1
    41    27    39 1
    42    27    40 1
@<TRIPOS>SUBSTRUCTURE
     1 8OD         1 TEMP              0 ****  ****    0 ROOT
