@<TRIPOS>MOLECULE
molecule
   24    25     1     0     0
SMALL
bcc


@<TRIPOS>ATOM
      1 C02          0.0000     0.0000     0.0000 ca         1 8OE       0.169600
      2 C03          1.3890     0.0000     0.0000 ca         1 8OE      -0.136500
      3 C04          2.0800     0.0000     1.1960 ca         1 8OE      -0.117500
      4 C05          1.3860    -0.0000     2.3980 ca         1 8OE       0.093100
      5 C06         -0.0020    -0.0010     2.3980 ca         1 8OE      -0.117500
      6 C07         -0.6930     0.0000     1.2040 ca         1 8OE      -0.136500
      7 C09          2.6250     1.1630     3.9890 ca         1 8OE       0.664600
      8 C11          2.9420     3.4260     3.6630 ca         1 8OE       0.470200
      9 C12          3.7420     3.5160     4.7860 ca         1 8OE      -0.132900
     10 C14          3.9880     2.3740     5.5380 ca         1 8OE      -0.055000
     11 C15          3.4190     1.1790     5.1300 ca         1 8OE      -0.107900
     12 N01         -0.7000     0.0060    -1.2110 nv         1 8OE      -0.992200
     13 N10          2.4140     2.2720     3.3000 nb         1 8OE      -0.732000
     14 O08          2.0660    -0.0020     3.5750 os         1 8OE      -0.342400
     15 Cl1          4.4320     5.0390     5.2520 cl         1 8OE      -0.087400
     16 Cl2          3.6920    -0.2780     6.0320 cl         1 8OE      -0.070400
     17 H031         1.9310    -0.0000    -0.9380 ha         1 8OE       0.140500
     18 H041         3.1630     0.0000     1.1960 ha         1 8OE       0.141000
     19 H061        -0.5420    -0.0010     3.3370 ha         1 8OE       0.141000
     20 H071        -1.7770    -0.0000     1.2050 ha         1 8OE       0.140500
     21 H111         2.7470     4.3130     3.0730 h4         1 8OE       0.042100
     22 H141         4.6110     2.4170     6.4230 ha         1 8OE       0.168000
     23 H012        -0.9520    -0.8590    -1.6480 hn         1 8OE       0.429300
     24 H011        -0.9490     0.8740    -1.6420 hn         1 8OE       0.429300
@<TRIPOS>BOND
     1    12     1 1
     2     1     2 ar
     3     1     6 ar
     4     2     3 ar
     5     6     5 ar
     6     3     4 ar
     7     5     4 ar
     8     4    14 1
     9    14     7 1
    10     7    13 ar
    11     7    11 ar
    12    16    11 1
    13    13     8 ar
    14    11    10 ar
    15     8     9 ar
    16    10     9 ar
    17     9    15 1
    18     2    17 1
    19     3    18 1
    20     5    19 1
    21     6    20 1
    22     8    21 1
    23    10    22 1
    24    12    23 1
    25    12    24 1
@<TRIPOS>SUBSTRUCTURE
     1 8OE         1 TEMP              0 ****  ****    0 ROOT
