@<TRIPOS>MOLECULE
8OF
   33    35     1     0     0
SMALL
bcc


@<TRIPOS>ATOM
      1 C9           0.0000     0.0000     0.0000 ca         1 8OF      -0.107000
      2 C12          1.3920     0.0000     0.0000 ca         1 8OF      -0.088000
      3 C4          -0.6980    -0.0020     1.1700 ca         1 8OF      -0.086000
      4 C8           2.0950     0.0000     1.1660 ca         1 8OF      -0.147300
      5 C13         -3.9320    -0.6940     5.1250 ca         1 8OF      -0.089500
      6 C14         -2.3650     0.9990     5.8030 ca         1 8OF      -0.089500
      7 C15         -4.5990    -0.5560     6.3260 ca         1 8OF      -0.137000
      8 C16         -3.0390     1.1430     6.9990 ca         1 8OF      -0.137000
      9 C6           0.0620    -0.0190     4.7890 ca         1 8OF      -0.344300
     10 C11          1.4470    -0.0050     4.7080 ca         1 8OF       0.461200
     11 C1          -0.0070    -0.0090     2.3890 ca         1 8OF      -0.188300
     12 C3           1.4080    -0.0030     2.3930 ca         1 8OF       0.413600
     13 C10         -2.8120     0.0830     4.8590 ca         1 8OF      -0.033400
     14 C2          -0.6940    -0.0120     3.6270 ca         1 8OF       0.073600
     15 C17         -4.1540     0.3620     7.2660 ca         1 8OF       0.129100
     16 C19         -3.9500     0.6420     9.5630 c3         1 8OF       0.244700
     17 N7           2.0740    -0.0030     3.5530 nb         1 8OF      -0.625000
     18 N5          -2.0800    -0.0070     3.6750 nu         1 8OF      -0.215000
     19 O18         -4.8070     0.5230     8.4470 os         1 8OF      -0.311900
     20 H1          -0.5410    -0.0000    -0.9380 ha         1 8OF       0.102000
     21 H2           1.9340     0.0020    -0.9380 ha         1 8OF       0.102000
     22 H3          -1.7810    -0.0020     1.1550 ha         1 8OF       0.103000
     23 H4           3.1780    -0.0000     1.1450 ha         1 8OF       0.118000
     24 H5          -4.2800    -1.4110     4.3910 ha         1 8OF       0.119000
     25 H6          -1.4940     1.6090     5.5950 ha         1 8OF       0.119000
     26 H7          -5.4720    -1.1630     6.5340 ha         1 8OF       0.119500
     27 H8          -2.6900     1.8570     7.7350 ha         1 8OF       0.119500
     28 H9          -0.4240    -0.0200     5.7570 ha         1 8OF       0.139000
     29 H10          2.0420    -0.0100     5.6130 h4         1 8OF      -0.026900
     30 H11         -3.1600    -0.0960     9.4920 h1         1 8OF      -0.005300
     31 H12         -4.5150     0.4790    10.4720 h1         1 8OF      -0.005300
     32 H13         -3.5160     1.6350     9.5810 h1         1 8OF      -0.005300
     33 H14         -2.4680     0.3410     2.8210 hn         1 8OF       0.279800
@<TRIPOS>BOND
     1     1     2 ar  
     2     1     3 ar  
     3     1    20 1   
     4     2     4 ar  
     5     2    21 1   
     6     3    11 ar  
     7     3    22 1   
     8     4    12 ar  
     9     4    23 1   
    10     5     7 ar  
    11     5    13 ar  
    12     5    24 1   
    13     6     8 ar  
    14     6    13 ar  
    15     6    25 1   
    16     7    15 ar  
    17     7    26 1   
    18     8    15 ar  
    19     8    27 1   
    20     9    10 ar  
    21     9    14 ar  
    22     9    28 1   
    23    10    17 ar  
    24    10    29 1   
    25    11    12 ar  
    26    11    14 ar  
    27    12    17 ar  
    28    13    18 1   
    29    14    18 1   
    30    15    19 1   
    31    16    19 1   
    32    16    30 1   
    33    16    31 1   
    34    16    32 1   
    35    18    33 1   
@<TRIPOS>SUBSTRUCTURE
     1 8OF         1 TEMP              0 ****  ****    0 ROOT
