@<TRIPOS>MOLECULE
molecule
   40    43     1     0     0
SMALL
bcc


@<TRIPOS>ATOM
      1 C4           0.0000     0.0000     0.0000 ca         1 8OH       0.754200
      2 C5           1.4150     0.0000     0.0000 ca         1 8OH      -0.344600
      3 C6           2.0880     0.0000     1.2480 ca         1 8OH       0.497600
      4 N1           1.3590    -0.0010     2.3740 nb         1 8OH      -0.778000
      5 N3          -0.6300     0.0000     1.1660 nb         1 8OH      -0.837000
      6 CAM         -0.0570    -0.0010     4.8090 ca         1 8OH      -0.083000
      7 CAN         -0.7750     0.0040     5.9870 ca         1 8OH      -0.147500
      8 CAO         -2.1590     0.0100     5.9560 ca         1 8OH      -0.113000
      9 CAP         -2.8290     0.0100     4.7450 ca         1 8OH      -0.147500
     10 CAQ         -2.1200     0.0050     3.5610 ca         1 8OH      -0.083000
     11 CAK         -0.7260    -0.0010     3.5860 cp         1 8OH      -0.143500
     12 C2           0.0410    -0.0000     2.3160 cp         1 8OH       0.795500
     13 CAC          3.4860    -0.0010     1.2760 ca         1 8OH      -0.230300
     14 CAB          4.1890    -0.0020     0.0860 ca         1 8OH       0.207600
     15 NAL          5.5810    -0.0020     0.1080 nv         1 8OH      -0.972200
     16 CAA          3.5150    -0.0010    -1.1400 ca         1 8OH      -0.175000
     17 CAF          2.1540    -0.0010    -1.1890 ca         1 8OH      -0.074000
     18 NAR         -0.7070     0.0060    -1.1850 nu         1 8OH      -0.900900
     19 CAS         -2.1720     0.0130    -1.1630 c3         1 8OH       0.320100
     20 CAT         -2.6950     0.0180    -2.5760 cc         1 8OH      -0.069400
     21 SAX         -3.0340     1.4590    -3.5270 ss         1 8OH      -0.147800
     22 CAW         -3.5390     0.4750    -4.8930 cc         1 8OH      -0.064100
     23 CAV         -3.4320    -0.8160    -4.5800 cd         1 8OH      -0.163000
     24 CAU         -2.9660    -1.0680    -3.3010 cd         1 8OH      -0.137000
     25 H2          -0.2560     0.0040     6.9370 ha         1 8OH       0.130500
     26 H3          -2.7190     0.0140     6.8820 ha         1 8OH       0.127000
     27 H4          -3.9120     0.0150     4.7260 ha         1 8OH       0.130500
     28 H5          -2.6460     0.0050     2.6140 ha         1 8OH       0.152500
     29 H6           4.0100    -0.1430     2.2140 ha         1 8OH       0.157000
     30 H7           6.0750     0.7680     0.5140 hn         1 8OH       0.432300
     31 H8           6.0880    -0.7730    -0.2780 hn         1 8OH       0.432300
     32 H9           4.0840    -0.0020    -2.0620 ha         1 8OH       0.135000
     33 H10          1.6450    -0.0000    -2.1450 ha         1 8OH       0.122000
     34 H11         -0.2200    -0.0020    -2.0590 hn         1 8OH       0.454800
     35 H12         -2.5290    -0.8710    -0.6490 h1         1 8OH       0.066200
     36 H13         -2.5210     0.8980    -0.6450 h1         1 8OH       0.066200
     37 H14         -3.8850     0.8600    -5.8450 h4         1 8OH       0.173000
     38 H15         -3.6910    -1.6070    -5.2730 ha         1 8OH       0.151000
     39 H16         -2.8320    -2.0730    -2.9170 ha         1 8OH       0.153000
     40 H1           1.0260    -0.0060     4.8340 ha         1 8OH       0.152500
@<TRIPOS>BOND
     1    21    22 1   
     2    21    20 1   
     3    22    23 2   
     4    23    24 1   
     5    20    24 2   
     6    20    19 1   
     7    19    18 1   
     8    18     1 1   
     9     7     6 ar  
    10     7     8 ar  
    11     6    11 ar  
    12     1     5 ar  
    13     1     2 ar  
    14     5    12 ar  
    15     8     9 ar  
    16    11    12 1   
    17    11    10 ar  
    18    12     4 ar  
    19     2    17 ar  
    20     2     3 ar  
    21    17    16 ar  
    22     9    10 ar  
    23     4     3 ar  
    24     3    13 ar  
    25    16    14 ar  
    26    13    14 ar  
    27    14    15 1   
    28     6    40 1   
    29     7    25 1   
    30     8    26 1   
    31     9    27 1   
    32    10    28 1   
    33    13    29 1   
    34    15    30 1   
    35    15    31 1   
    36    16    32 1   
    37    17    33 1   
    38    18    34 1   
    39    19    35 1   
    40    19    36 1   
    41    22    37 1   
    42    23    38 1   
    43    24    39 1   
@<TRIPOS>SUBSTRUCTURE
     1 8OH         1 TEMP              0 ****  ****    0 ROOT
