@<TRIPOS>MOLECULE
8OH
   40    43     1     0     0
SMALL
bcc


@<TRIPOS>ATOM
      1 C4           0.0000     0.0000     0.0000 ca         1 8OH       0.569200
      2 C5           1.4150     0.0000     0.0000 ca         1 8OH      -0.339600
      3 C6           2.0880     0.0000     1.2480 ca         1 8OH       0.463600
      4 N1           1.3590    -0.0010     2.3740 nb         1 8OH      -0.679000
      5 N3          -0.6300     0.0000     1.1660 nb         1 8OH      -0.731000
      6 CAM         -0.0570    -0.0010     4.8090 ca         1 8OH      -0.061000
      7 CAN         -0.7750     0.0040     5.9870 ca         1 8OH      -0.120500
      8 CAO         -2.1590     0.0100     5.9560 ca         1 8OH      -0.088000
      9 CAP         -2.8290     0.0100     4.7450 ca         1 8OH      -0.120500
     10 CAQ         -2.1200     0.0050     3.5610 ca         1 8OH      -0.061000
     11 CAK         -0.7260    -0.0010     3.5860 cp         1 8OH      -0.162500
     12 C2           0.0410    -0.0000     2.3160 cp         1 8OH       0.723500
     13 CAC          3.4860    -0.0010     1.2760 ca         1 8OH      -0.206300
     14 CAB          4.1890    -0.0020     0.0860 ca         1 8OH       0.068600
     15 NAL          5.5810    -0.0020     0.1080 nv         1 8OH      -0.527200
     16 CAA          3.5150    -0.0010    -1.1400 ca         1 8OH      -0.148000
     17 CAF          2.1540    -0.0010    -1.1890 ca         1 8OH      -0.047000
     18 NAR         -0.7070     0.0060    -1.1850 nu         1 8OH      -0.491900
     19 CAS         -2.1720     0.0130    -1.1630 c3         1 8OH       0.265100
     20 CAT         -2.6950     0.0180    -2.5760 cc         1 8OH      -0.027400
     21 SAX         -3.0340     1.4590    -3.5270 ss         1 8OH      -0.262800
     22 CAW         -3.5390     0.4750    -4.8930 cc         1 8OH       0.016900
     23 CAV         -3.4320    -0.8160    -4.5800 cd         1 8OH      -0.132000
     24 CAU         -2.9660    -1.0680    -3.3010 cd         1 8OH      -0.106000
     25 H2          -0.2560     0.0040     6.9370 ha         1 8OH       0.102000
     26 H3          -2.7190     0.0140     6.8820 ha         1 8OH       0.098000
     27 H4          -3.9120     0.0150     4.7260 ha         1 8OH       0.102000
     28 H5          -2.6460     0.0050     2.6140 ha         1 8OH       0.122500
     29 H6           4.0100    -0.1430     2.2140 ha         1 8OH       0.128000
     30 H7           6.0750     0.7680     0.5140 hn         1 8OH       0.273800
     31 H8           6.0880    -0.7730    -0.2780 hn         1 8OH       0.273800
     32 H9           4.0840    -0.0020    -2.0620 ha         1 8OH       0.109000
     33 H10          1.6450    -0.0000    -2.1450 ha         1 8OH       0.099000
     34 H11         -0.2200    -0.0020    -2.0590 hn         1 8OH       0.306800
     35 H12         -2.5290    -0.8710    -0.6490 h1         1 8OH       0.035700
     36 H13         -2.5210     0.8980    -0.6450 h1         1 8OH       0.035700
     37 H14         -3.8850     0.8600    -5.8450 h4         1 8OH       0.150000
     38 H15         -3.6910    -1.6070    -5.2730 ha         1 8OH       0.123000
     39 H16         -2.8320    -2.0730    -2.9170 ha         1 8OH       0.125000
     40 H1           1.0260    -0.0060     4.8340 ha         1 8OH       0.122500
@<TRIPOS>BOND
     1     1     2 ar  
     2     1     5 ar  
     3     1    18 1   
     4     2     3 ar  
     5     2    17 ar  
     6     3     4 ar  
     7     3    13 ar  
     8     4    12 ar  
     9     5    12 ar  
    10     6     7 ar  
    11     6    11 ar  
    12     6    40 1   
    13     7     8 ar  
    14     7    25 1   
    15     8     9 ar  
    16     8    26 1   
    17     9    10 ar  
    18     9    27 1   
    19    10    11 ar  
    20    10    28 1   
    21    11    12 1   
    22    13    14 ar  
    23    13    29 1   
    24    14    15 1   
    25    14    16 ar  
    26    15    30 1   
    27    15    31 1   
    28    16    17 ar  
    29    16    32 1   
    30    17    33 1   
    31    18    19 1   
    32    18    34 1   
    33    19    20 1   
    34    19    35 1   
    35    19    36 1   
    36    20    21 1   
    37    20    24 2   
    38    21    22 1   
    39    22    23 2   
    40    22    37 1   
    41    23    24 1   
    42    23    38 1   
    43    24    39 1   
@<TRIPOS>SUBSTRUCTURE
     1 8OH         1 TEMP              0 ****  ****    0 ROOT
