@<TRIPOS>MOLECULE
molecule
   59    63     1     0     0
SMALL
bcc


@<TRIPOS>ATOM
      1 C4           0.0000     0.0000     0.0000 ca         1 8OK       0.488600
      2 C5           1.4180     0.0000     0.0000 ca         1 8OK      -0.336600
      3 C6           2.0890     0.0000     1.2470 ca         1 8OK       0.753200
      4 N1           1.3610     0.0010     2.3540 nb         1 8OK      -0.832000
      5 N3          -0.6470     0.0010     1.1740 nb         1 8OK      -0.779000
      6 CAM         -2.4620    -1.1370     8.0100 c3         1 8OK       0.125800
      7 CAN         -3.2190    -1.0630     9.3390 c3         1 8OK       0.136400
      8 OBF         -4.6250    -1.0260     9.0790 os         1 8OK      -0.424600
      9 CAO         -5.0320     0.0770     8.2640 c3         1 8OK       0.136400
     10 CAP         -4.2930     0.0150     6.9240 c3         1 8OK       0.125800
     11 NAA         -2.8430     0.0080     7.1690 nh         1 8OK      -0.596000
     12 CAS         -2.1340     0.0050     5.9700 ca         1 8OK       0.119600
     13 CAT         -0.7430    -0.0010     5.9850 ca         1 8OK      -0.185500
     14 CAF         -0.0400    -0.0020     4.8000 ca         1 8OK      -0.058000
     15 CAR         -2.8190     0.0040     4.7590 ca         1 8OK      -0.185500
     16 CAQ         -2.1200     0.0030     3.5720 ca         1 8OK      -0.058000
     17 CAU         -0.7240     0.0030     3.5840 cp         1 8OK      -0.171500
     18 C2           0.0290     0.0020     2.3080 cp         1 8OK       0.798500
     19 CAX         -0.6860    -0.0060    -1.2200 ca         1 8OK      -0.207300
     20 CAY          0.0290    -0.0070    -2.4010 ca         1 8OK       0.197600
     21 NAC         -0.6500    -0.0130    -3.6180 nv         1 8OK      -0.993200
     22 CAZ          1.4280    -0.0030    -2.3890 ca         1 8OK      -0.164000
     23 CBA          2.1160    -0.0020    -1.2130 ca         1 8OK      -0.085000
     24 NAB          3.4670    -0.0010     1.3080 nu         1 8OK      -0.903900
     25 CAW          4.1420    -0.0010     2.6080 c3         1 8OK       0.241800
     26 CAV          5.6570    -0.0020     2.3950 c3         1 8OK      -0.055100
     27 CAL          6.3520    -0.0010     3.7320 ca         1 8OK      -0.086300
     28 CAG          6.6660     1.1960     4.3480 ca         1 8OK      -0.121000
     29 CAH          7.3040     1.1980     5.5740 ca         1 8OK      -0.125000
     30 CAI          7.6260     0.0000     6.1860 ca         1 8OK      -0.126000
     31 CAJ          7.3120    -1.1970     5.5710 ca         1 8OK      -0.125000
     32 CAK          6.6700    -1.1980     4.3470 ca         1 8OK      -0.121000
     33 H2          -1.3960    -1.1060     8.2000 h1         1 8OK       0.052700
     34 H3          -2.9270    -0.1650     9.8710 h1         1 8OK       0.055450
     35 H4          -2.9860    -1.9360     9.9360 h1         1 8OK       0.055450
     36 H5          -6.1000     0.0220     8.0900 h1         1 8OK       0.055450
     37 H6          -4.7890     1.0050     8.7670 h1         1 8OK       0.055450
     38 H7          -4.5540     0.8810     6.3280 h1         1 8OK       0.052700
     39 H8          -4.5740    -0.8910     6.4000 h1         1 8OK       0.052700
     40 H9          -0.2120    -0.0040     6.9290 ha         1 8OK       0.137500
     41 H10          1.0440    -0.0040     4.8130 ha         1 8OK       0.154500
     42 H11         -3.9020     0.0040     4.7490 ha         1 8OK       0.137500
     43 H12         -2.6530     0.0040     2.6290 ha         1 8OK       0.154500
     44 H13         -1.7610     0.1220    -1.2380 ha         1 8OK       0.156000
     45 H14         -0.8810     0.8510    -4.0670 hn         1 8OK       0.431300
     46 H15         -0.9150    -0.8820    -4.0380 hn         1 8OK       0.431300
     47 H16          1.9720    -0.0030    -3.3260 ha         1 8OK       0.136000
     48 H17          3.1990     0.0020    -1.2170 ha         1 8OK       0.120000
     49 H18          4.0050    -0.0010     0.4650 hn         1 8OK       0.448800
     50 H19          3.8560     0.8840     3.1630 h1         1 8OK       0.059700
     51 H20          3.8550    -0.8850     3.1640 h1         1 8OK       0.059700
     52 H21          5.9440    -0.8870     1.8400 hc         1 8OK       0.051700
     53 H22          5.9440     0.8820     1.8390 hc         1 8OK       0.051700
     54 H23          6.4140     2.1340     3.8680 ha         1 8OK       0.131000
     55 H24          7.5500     2.1360     6.0560 ha         1 8OK       0.131500
     56 H25          8.1270     0.0010     7.1460 ha         1 8OK       0.130000
     57 H26          7.5630    -2.1350     6.0520 ha         1 8OK       0.131500
     58 H27          6.4230    -2.1370     3.8650 ha         1 8OK       0.131000
     59 H1          -2.7170    -2.0590     7.5010 h1         1 8OK       0.052700
@<TRIPOS>BOND
     1    21    20 1   
     2    20    19 ar  
     3    20    22 ar  
     4    19     1 ar  
     5    22    23 ar  
     6     9    10 1   
     7     9     8 1   
     8     1     5 ar  
     9     1     2 ar  
    10     5    18 ar  
    11    16    15 ar  
    12    16    17 ar  
    13    15    12 ar  
    14    10    11 1   
    15     8     7 1   
    16    23     2 ar  
    17     2     3 ar  
    18    18    17 1   
    19    18     4 ar  
    20    17    14 ar  
    21    12    11 1   
    22    12    13 ar  
    23    11     6 1   
    24     7     6 1   
    25     4     3 ar  
    26     3    24 1   
    27    14    13 ar  
    28    24    25 1   
    29    25    26 1   
    30    26    27 1   
    31    27    32 ar  
    32    27    28 ar  
    33    32    31 ar  
    34    28    29 ar  
    35    31    30 ar  
    36    29    30 ar  
    37     6    59 1   
    38     6    33 1   
    39     7    34 1   
    40     7    35 1   
    41     9    36 1   
    42     9    37 1   
    43    10    38 1   
    44    10    39 1   
    45    13    40 1   
    46    14    41 1   
    47    15    42 1   
    48    16    43 1   
    49    19    44 1   
    50    21    45 1   
    51    21    46 1   
    52    22    47 1   
    53    23    48 1   
    54    24    49 1   
    55    25    50 1   
    56    25    51 1   
    57    26    52 1   
    58    26    53 1   
    59    28    54 1   
    60    29    55 1   
    61    30    56 1   
    62    31    57 1   
    63    32    58 1   
@<TRIPOS>SUBSTRUCTURE
     1 8OK         1 TEMP              0 ****  ****    0 ROOT
