@<TRIPOS>MOLECULE
molecule
   61    64     1     0     0
SMALL
bcc


@<TRIPOS>ATOM
      1 C12          0.0000     0.0000     0.0000 ca         1 8OM      -0.138500
      2 C13          1.3800     0.0000     0.0000 ca         1 8OM      -0.012000
      3 C8          -6.4530    -0.0200     1.2330 c3         1 8OM       0.072000
      4 C7          -2.8720     0.0030     2.4250 ca         1 8OM      -0.118000
      5 C6          -4.2520     0.0070     2.4250 ca         1 8OM      -0.106500
      6 C4          -4.2630     0.0010     0.0260 ca         1 8OM      -0.106500
      7 C2          -2.1780     0.0040     1.2160 cp         1 8OM      -0.006000
      8 C1           3.1410    -3.4940     1.0340 c          1 8OM       0.875600
      9 O2           2.4650    -3.9740     0.0870 o          1 8OM      -0.835300
     10 O1           2.8080    -3.7240     2.2260 o          1 8OM      -0.835300
     11 C21          4.3770    -2.6470     0.7360 c3         1 8OM       0.122500
     12 C22          5.6320    -3.5040     0.8970 c3         1 8OM      -0.059700
     13 C17          5.5460    -4.7140    -0.0320 c3         1 8OM      -0.085600
     14 C9           6.8640    -2.6740     0.5390 c3         1 8OM      -0.085600
     15 N18          4.4310    -1.5300     1.6610 n7         1 8OM      -0.826100
     16 O19          4.3880     1.0680     2.0250 o          1 8OM      -0.623800
     17 O20          4.3450     0.3840    -0.1320 o          1 8OM      -0.623800
     18 C14          2.0750     0.0000     1.1950 ca         1 8OM      -0.229500
     19 C15          1.3910     0.0000     2.3990 ca         1 8OM      -0.012000
     20 C16          0.0110    -0.0010     2.4110 ca         1 8OM      -0.138500
     21 C11         -0.6940    -0.0010     1.2090 cp         1 8OM      -0.006000
     22 C5          -4.9460     0.0050     1.2290 ca         1 8OM      -0.106300
     23 C3          -2.8820     0.0080     0.0140 ca         1 8OM      -0.118000
     24 S10         -7.0870     1.6810     1.2720 ss         1 8OM      -0.190300
     25 C28         -8.9020     1.6510     1.2770 cc         1 8OM       0.514800
     26 N31         -9.6200     0.3580     1.2510 nd         1 8OM      -0.648300
     27 C34        -11.0840     0.3320     1.2540 cd         1 8OM       0.144400
     28 C37        -12.0270    -0.8720     1.2310 c3         1 8OM      -0.020200
     29 C36        -13.4390    -0.2640     1.2490 c3         1 8OM      -0.087400
     30 C35        -13.1950     1.3760     1.2840 c3         1 8OM      -0.021200
     31 C33        -11.8350     1.5900     1.2840 cc         1 8OM      -0.278400
     32 C32        -11.0930     2.9110     1.3110 c          1 8OM       0.728700
     33 N29         -9.6630     2.9190     1.3060 ns         1 8OM      -0.489400
     34 O38        -11.6940     3.9320     1.3070 o          1 8OM      -0.607500
     35 H1          -0.5410     0.0500    -0.9370 ha         1 8OM       0.129000
     36 H2           1.7210     0.1900    -1.0110 ha         1 8OM       0.147500
     37 H3          -6.8080    -0.5170     0.3380 h1         1 8OM       0.082700
     38 H4          -6.8030    -0.5560     2.1070 h1         1 8OM       0.082700
     39 H5          -2.3300     0.0500     3.3620 ha         1 8OM       0.144000
     40 H6          -4.7930     0.0070     3.3630 ha         1 8OM       0.131500
     41 H7          -4.8110    -0.0210    -0.9080 ha         1 8OM       0.131500
     42 H9           4.3220    -2.2730    -0.2790 h1         1 8OM       0.059700
     43 H10          5.7100    -3.8410     1.9240 hc         1 8OM       0.053700
     44 H11          5.2200    -4.3930    -1.0140 hc         1 8OM       0.029867
     45 H12          4.8350    -5.4270     0.3690 hc         1 8OM       0.029867
     46 H13          6.5200    -5.1810    -0.1090 hc         1 8OM       0.029867
     47 H14          6.9590    -1.8500     1.2360 hc         1 8OM       0.029867
     48 H15          6.7580    -2.2860    -0.4670 hc         1 8OM       0.029867
     49 H16          7.7480    -3.2980     0.5940 hc         1 8OM       0.029867
     50 H17          4.7830    -1.6650     2.5880 hn         1 8OM       0.449800
     51 H18          1.9380     0.0350     3.3330 ha         1 8OM       0.147500
     52 H19         -0.5220    -0.0320     3.3530 ha         1 8OM       0.129000
     53 H20         -2.3490    -0.0320    -0.9280 ha         1 8OM       0.144000
     54 H21        -11.7980    -1.5120     0.3880 hc         1 8OM       0.065200
     55 H22        -14.0320    -0.7430     2.0190 hc         1 8OM       0.051700
     56 H23        -13.2790     1.7350     2.3020 hc         1 8OM       0.063200
     57 H24        -11.9570    -1.4230     2.1610 hc         1 8OM       0.065200
     58 H25        -13.8810    -0.3410     0.2630 hc         1 8OM       0.051700
     59 H26        -13.8840     1.8610     0.6030 hc         1 8OM       0.063200
     60 H27         -9.1950     3.7810     1.5020 hn         1 8OM       0.336500
     61 S17          3.8360     0.0010     1.1870 sy         1 8OM       1.247200
@<TRIPOS>BOND
     1    14    12 1
     2    13    12 1
     3    12    11 1
     4    11    15 1
     5    11     8 1
     6    15    61 1
     7     8    10 1
     8     8     9 1
     9    16    61 2
    10    61    17 2
    11    61    18 1
    12    18    19 ar
    13    18     2 ar
    14    19    20 ar
    15     2     1 ar
    16    20    21 ar
    17     1    21 ar
    18    21     7 1
    19     7     4 ar
    20     7    23 ar
    21     4     5 ar
    22    23     6 ar
    23     5    22 ar
    24     6    22 ar
    25    22     3 1
    26     3    24 1
    27    24    25 1
    28    26    25 2
    29    26    27 1
    30    25    33 1
    31    27    28 1
    32    27    31 2
    33    28    29 1
    34    33    32 1
    35    31    32 1
    36    31    30 1
    37    32    34 2
    38    29    30 1
    39     1    35 1
    40     2    36 1
    41     3    37 1
    42     3    38 1
    43     4    39 1
    44     5    40 1
    45     6    41 1
    46    11    42 1
    47    12    43 1
    48    13    44 1
    49    13    45 1
    50    13    46 1
    51    14    47 1
    52    14    48 1
    53    14    49 1
    54    15    50 1
    55    19    51 1
    56    20    52 1
    57    23    53 1
    58    28    54 1
    59    29    55 1
    60    30    56 1
    61    28    57 1
    62    29    58 1
    63    30    59 1
    64    33    60 1
@<TRIPOS>SUBSTRUCTURE
     1 8OM         1 TEMP              0 ****  ****    0 ROOT
