@<TRIPOS>MOLECULE
8OM
   61    64     1     0     0
SMALL
bcc


@<TRIPOS>ATOM
      1 C12          0.0000     0.0000     0.0000 ca         1 8OM      -0.129000
      2 C13          1.3800     0.0000     0.0000 ca         1 8OM       0.025500
      3 C8          -6.4530    -0.0200     1.2330 c3         1 8OM       0.193000
      4 C7          -2.8720     0.0030     2.4250 ca         1 8OM      -0.098000
      5 C6          -4.2520     0.0070     2.4250 ca         1 8OM      -0.077500
      6 C4          -4.2630     0.0010     0.0260 ca         1 8OM      -0.077500
      7 C2          -2.1780     0.0040     1.2160 cp         1 8OM       0.001000
      8 C1           3.1410    -3.4940     1.0340 c          1 8OM       0.962600
      9 O2           2.4650    -3.9740     0.0870 o          1 8OM      -0.887300
     10 O1           2.8080    -3.7240     2.2260 o          1 8OM      -0.887300
     11 C21          4.3770    -2.6470     0.7360 c3         1 8OM       0.069500
     12 C22          5.6320    -3.5040     0.8970 c3         1 8OM      -0.040700
     13 C17          5.5460    -4.7140    -0.0320 c3         1 8OM       0.000400
     14 C9           6.8640    -2.6740     0.5390 c3         1 8OM       0.000400
     15 N18          4.4310    -1.5300     1.6610 n7         1 8OM      -0.461100
     16 O19          4.3880     1.0680     2.0250 o          1 8OM      -0.587800
     17 O20          4.3450     0.3840    -0.1320 o          1 8OM      -0.587800
     18 C14          2.0750     0.0000     1.1950 ca         1 8OM      -0.070500
     19 C15          1.3910     0.0000     2.3990 ca         1 8OM       0.025500
     20 C16          0.0110    -0.0010     2.4110 ca         1 8OM      -0.129000
     21 C11         -0.6940    -0.0010     1.2090 cp         1 8OM      -0.006000
     22 C5          -4.9460     0.0050     1.2290 ca         1 8OM      -0.116300
     23 C3          -2.8820     0.0080     0.0140 ca         1 8OM      -0.098000
     24 S10         -7.0870     1.6810     1.2720 ss         1 8OM      -0.307300
     25 C28         -8.9020     1.6510     1.2770 cc         1 8OM       0.399800
     26 N31         -9.6200     0.3580     1.2510 nd         1 8OM      -0.621300
     27 C34        -11.0840     0.3320     1.2540 cd         1 8OM       0.140400
     28 C37        -12.0270    -0.8720     1.2310 c3         1 8OM       0.044800
     29 C36        -13.4390    -0.2640     1.2490 c3         1 8OM      -0.028400
     30 C35        -13.1950     1.3760     1.2840 c3         1 8OM       0.047800
     31 C33        -11.8350     1.5900     1.2840 cc         1 8OM      -0.288400
     32 C32        -11.0930     2.9110     1.3110 c          1 8OM       0.661700
     33 N29         -9.6630     2.9190     1.3060 ns         1 8OM      -0.060400
     34 O38        -11.6940     3.9320     1.3070 o          1 8OM      -0.644500
     35 H1          -0.5410     0.0500    -0.9370 ha         1 8OM       0.108000
     36 H2           1.7210     0.1900    -1.0110 ha         1 8OM       0.115000
     37 H3          -6.8080    -0.5170     0.3380 h1         1 8OM       0.049200
     38 H4          -6.8030    -0.5560     2.1070 h1         1 8OM       0.049200
     39 H5          -2.3300     0.0500     3.3620 ha         1 8OM       0.119500
     40 H6          -4.7930     0.0070     3.3630 ha         1 8OM       0.105500
     41 H7          -4.8110    -0.0210    -0.9080 ha         1 8OM       0.105500
     42 H9           4.3220    -2.2730    -0.2790 h1         1 8OM       0.043700
     43 H10          5.7100    -3.8410     1.9240 hc         1 8OM       0.029700
     44 H11          5.2200    -4.3930    -1.0140 hc         1 8OM       0.000700
     45 H12          4.8350    -5.4270     0.3690 hc         1 8OM       0.000700
     46 H13          6.5200    -5.1810    -0.1090 hc         1 8OM       0.000700
     47 H14          6.9590    -1.8500     1.2360 hc         1 8OM       0.000700
     48 H15          6.7580    -2.2860    -0.4670 hc         1 8OM       0.000700
     49 H16          7.7480    -3.2980     0.5940 hc         1 8OM       0.000700
     50 H17          4.7830    -1.6650     2.5880 hn         1 8OM       0.339800
     51 H18          1.9380     0.0350     3.3330 ha         1 8OM       0.115000
     52 H19         -0.5220    -0.0320     3.3530 ha         1 8OM       0.108000
     53 H20         -2.3490    -0.0320    -0.9280 ha         1 8OM       0.119500
     54 H21        -11.7980    -1.5120     0.3880 hc         1 8OM       0.029200
     55 H22        -14.0320    -0.7430     2.0190 hc         1 8OM       0.018700
     56 H23        -13.2790     1.7350     2.3020 hc         1 8OM       0.033200
     57 H24        -11.9570    -1.4230     2.1610 hc         1 8OM       0.029200
     58 H25        -13.8810    -0.3410     0.2630 hc         1 8OM       0.018700
     59 H26        -13.8840     1.8610     0.6030 hc         1 8OM       0.033200
     60 H27         -9.1950     3.7810     1.5020 hn         1 8OM       0.191500
     61 S17          3.8360     0.0010     1.1870 sy         1 8OM       0.864200
@<TRIPOS>BOND
     1     1     2 ar  
     2     1    21 ar  
     3     1    35 1   
     4     2    18 ar  
     5     2    36 1   
     6     3    22 1   
     7     3    24 1   
     8     3    37 1   
     9     3    38 1   
    10     4     5 ar  
    11     4     7 ar  
    12     4    39 1   
    13     5    22 ar  
    14     5    40 1   
    15     6    22 ar  
    16     6    23 ar  
    17     6    41 1   
    18     7    21 1   
    19     7    23 ar  
    20     8     9 1   
    21     8    10 1   
    22     8    11 1   
    23    11    12 1   
    24    11    15 1   
    25    11    42 1   
    26    12    13 1   
    27    12    14 1   
    28    12    43 1   
    29    13    44 1   
    30    13    45 1   
    31    13    46 1   
    32    14    47 1   
    33    14    48 1   
    34    14    49 1   
    35    15    50 1   
    36    15    61 1   
    37    16    61 2   
    38    17    61 2   
    39    18    19 ar  
    40    18    61 1   
    41    19    20 ar  
    42    19    51 1   
    43    20    21 ar  
    44    20    52 1   
    45    23    53 1   
    46    24    25 1   
    47    25    26 2   
    48    25    33 1   
    49    26    27 1   
    50    27    28 1   
    51    27    31 2   
    52    28    29 1   
    53    28    54 1   
    54    28    57 1   
    55    29    30 1   
    56    29    55 1   
    57    29    58 1   
    58    30    31 1   
    59    30    56 1   
    60    30    59 1   
    61    31    32 1   
    62    32    33 1   
    63    32    34 2   
    64    33    60 1   
@<TRIPOS>SUBSTRUCTURE
     1 8OM         1 TEMP              0 ****  ****    0 ROOT
