@<TRIPOS>MOLECULE
molecule
   65    69     1     0     0
SMALL
bcc


@<TRIPOS>ATOM
      1 C4           0.0000     0.0000     0.0000 ca         1 8ON       0.488600
      2 C5           1.4170     0.0000     0.0000 ca         1 8ON      -0.336600
      3 C6           2.0890     0.0000     1.2470 ca         1 8ON       0.753200
      4 N1           1.3620    -0.0000     2.3540 nb         1 8ON      -0.832000
      5 N3          -0.6460     0.0010     1.1740 nb         1 8ON      -0.780000
      6 CAM         -2.4480    -1.1350     8.0160 c3         1 8ON       0.146300
      7 CAN         -3.1110    -0.9990     9.3900 c3         1 8ON       0.105000
      8 NAE         -4.5590    -0.8390     9.1970 n          1 8ON      -0.497800
      9 CAY         -5.4360    -1.6170     9.8630 c          1 8ON       0.662100
     10 OBI         -5.0320    -2.4620    10.6350 o          1 8ON      -0.611100
     11 CAL         -6.9170    -1.4370     9.6500 c3         1 8ON      -0.170100
     12 CAZ         -5.0280     0.1910     8.2570 c3         1 8ON       0.105000
     13 CBD         -4.2890     0.0070     6.9270 c3         1 8ON       0.146300
     14 NAD         -2.8410     0.0010     7.1710 nh         1 8ON      -0.597000
     15 CAJ         -2.1320     0.0000     5.9710 ca         1 8ON       0.119600
     16 CBE         -0.7410    -0.0060     5.9850 ca         1 8ON      -0.187000
     17 CBA         -0.0390    -0.0060     4.8010 ca         1 8ON      -0.056500
     18 CBB         -2.8170    -0.0010     4.7600 ca         1 8ON      -0.187000
     19 CBC         -2.1190    -0.0010     3.5720 ca         1 8ON      -0.056500
     20 CAO         -0.7230    -0.0000     3.5850 cp         1 8ON      -0.170500
     21 C2           0.0290     0.0000     2.3100 cp         1 8ON       0.798500
     22 CAX         -0.6870    -0.0060    -1.2200 ca         1 8ON      -0.207300
     23 CBG          0.0280    -0.0060    -2.4000 ca         1 8ON       0.198600
     24 NAC         -0.6510    -0.0110    -3.6170 nv         1 8ON      -0.993200
     25 CBH          1.4270    -0.0000    -2.3890 ca         1 8ON      -0.164000
     26 CAK          2.1160    -0.0010    -1.2140 ca         1 8ON      -0.085000
     27 NAF          3.4670    -0.0010     1.3080 nu         1 8ON      -0.903900
     28 CAR          4.1430    -0.0010     2.6080 c3         1 8ON       0.241800
     29 CAG          5.6580    -0.0020     2.3940 c3         1 8ON      -0.055100
     30 CAW          6.3530    -0.0020     3.7310 ca         1 8ON      -0.086300
     31 CAV          6.6680     1.1950     4.3470 ca         1 8ON      -0.121000
     32 CAU          7.3050     1.1950     5.5730 ca         1 8ON      -0.125000
     33 CAQ          7.6280    -0.0020     6.1840 ca         1 8ON      -0.126000
     34 CAT          7.3130    -1.2000     5.5690 ca         1 8ON      -0.125000
     35 CBF          6.6710    -1.1990     4.3450 ca         1 8ON      -0.121000
     36 H1          -2.7700    -2.0590     7.5500 h1         1 8ON       0.052700
     37 H2          -1.3710    -1.1400     8.1340 h1         1 8ON       0.052700
     38 H3          -2.7150    -0.1280     9.9000 h1         1 8ON       0.063700
     39 H4          -2.9180    -1.8890     9.9760 h1         1 8ON       0.063700
     40 H5          -7.1720    -1.7140     8.6340 hc         1 8ON       0.060700
     41 H6          -7.4610    -2.0680    10.3440 hc         1 8ON       0.060700
     42 H7          -7.1840    -0.4010     9.8200 hc         1 8ON       0.060700
     43 H8          -4.8130     1.1740     8.6590 h1         1 8ON       0.063700
     44 H9          -6.0940     0.0810     8.0990 h1         1 8ON       0.063700
     45 H10         -4.5390     0.8250     6.2610 h1         1 8ON       0.052700
     46 H11         -4.5830    -0.9340     6.4780 h1         1 8ON       0.052700
     47 H12         -0.2100    -0.0110     6.9290 ha         1 8ON       0.137000
     48 H13          1.0440    -0.0080     4.8130 ha         1 8ON       0.155000
     49 H14         -3.9000    -0.0020     4.7500 ha         1 8ON       0.137000
     50 H15         -2.6520     0.0010     2.6300 ha         1 8ON       0.155000
     51 H16         -1.7610     0.1290    -1.2370 ha         1 8ON       0.156000
     52 H17         -0.8820     0.8530    -4.0660 hn         1 8ON       0.431300
     53 H18         -0.9180    -0.8800    -4.0370 hn         1 8ON       0.431300
     54 H19          1.9690    -0.0000    -3.3270 ha         1 8ON       0.136000
     55 H20          3.1990     0.0030    -1.2180 ha         1 8ON       0.120000
     56 H21          4.0050    -0.0010     0.4640 hn         1 8ON       0.448800
     57 H22          3.8560    -0.8850     3.1640 h1         1 8ON       0.059700
     58 H23          3.8580     0.8840     3.1630 h1         1 8ON       0.059700
     59 H24          5.9430    -0.8870     1.8380 hc         1 8ON       0.051700
     60 H25          5.9450     0.8820     1.8370 hc         1 8ON       0.051700
     61 H26          6.4150     2.1330     3.8680 ha         1 8ON       0.131000
     62 H27          7.5520     2.1330     6.0560 ha         1 8ON       0.131500
     63 H28          8.1290    -0.0020     7.1450 ha         1 8ON       0.131000
     64 H29          7.5640    -2.1380     6.0490 ha         1 8ON       0.131500
     65 H30          6.4250    -2.1370     3.8630 ha         1 8ON       0.131000
@<TRIPOS>BOND
     1    24    23 1
     2    23    22 ar
     3    23    25 ar
     4    22     1 ar
     5    25    26 ar
     6     1     5 ar
     7     1     2 ar
     8     5    21 ar
     9    19    18 ar
    10    19    20 ar
    11    18    15 ar
    12    13    12 1
    13    13    14 1
    14    26     2 ar
    15    11     9 1
    16     2     3 ar
    17    21    20 1
    18    21     4 ar
    19    20    17 ar
    20    12     8 1
    21    15    14 1
    22    15    16 ar
    23    14     6 1
    24     9     8 1
    25     9    10 2
    26     8     7 1
    27     3     4 ar
    28     3    27 1
    29    17    16 ar
    30     6     7 1
    31    27    28 1
    32    28    29 1
    33    29    30 1
    34    30    35 ar
    35    30    31 ar
    36    35    34 ar
    37    31    32 ar
    38    34    33 ar
    39    32    33 ar
    40     6    36 1
    41     6    37 1
    42     7    38 1
    43     7    39 1
    44    11    40 1
    45    11    41 1
    46    11    42 1
    47    12    43 1
    48    12    44 1
    49    13    45 1
    50    13    46 1
    51    16    47 1
    52    17    48 1
    53    18    49 1
    54    19    50 1
    55    22    51 1
    56    24    52 1
    57    24    53 1
    58    25    54 1
    59    26    55 1
    60    27    56 1
    61    28    57 1
    62    28    58 1
    63    29    59 1
    64    29    60 1
    65    31    61 1
    66    32    62 1
    67    33    63 1
    68    34    64 1
    69    35    65 1
@<TRIPOS>SUBSTRUCTURE
     1 8ON         1 TEMP              0 ****  ****    0 ROOT
