@<TRIPOS>MOLECULE
8OP
   36    38     1     0     0
SMALL
bcc


@<TRIPOS>ATOM
      1 P            0.0000     0.0000     0.0000 p5         1 8OP       0.681900
      2 O1P          1.6100     0.0000     0.0000 o          1 8OP      -0.739167
      3 O2P         -0.4940     0.0000     1.3950 o          1 8OP      -0.739167
      4 O3P         -0.5370     1.3130    -0.7600 o          1 8OP      -0.739167
      5 O50         -0.5360    -1.3160    -0.7580 os         1 8OP      -0.465200
      6 C50         -0.3170    -2.6400    -0.2680 c3         1 8OP       0.280400
      7 C40         -0.9560    -3.6500    -1.2240 c3         1 8OP       0.137100
      8 O40         -0.2680    -3.6310    -2.4850 os         1 8OP      -0.339600
      9 C30         -0.8200    -5.0730    -0.6490 c3         1 8OP       0.130100
     10 O30         -2.1080    -5.6570    -0.4490 oh         1 8OP      -0.574800
     11 C20         -0.0370    -5.8480    -1.7390 c3         1 8OP       0.105100
     12 O20         -0.5710    -7.1630    -1.9110 oh         1 8OP      -0.571800
     13 C10         -0.2880    -4.9800    -2.9980 c3         1 8OP       0.212500
     14 N9           0.7820    -5.1750    -3.9800 n          1 8OP       0.001700
     15 C8           2.0880    -4.9150    -3.7810 c          1 8OP       0.559500
     16 O8           2.5680    -4.4810    -2.7500 o          1 8OP      -0.644500
     17 N7           2.7830    -5.2120    -4.8970 ns         1 8OP       0.021900
     18 C5           1.8850    -5.6820    -5.8520 ca         1 8OP      -0.410000
     19 C6           2.0030    -6.1330    -7.1660 ca         1 8OP       0.505200
     20 N6           3.2420    -6.1780    -7.7910 nv         1 8OP      -0.649500
     21 N1           0.9030    -6.5210    -7.8070 nb         1 8OP      -0.667000
     22 C2          -0.2760    -6.4810    -7.2170 ca         1 8OP       0.607900
     23 N3          -0.4280    -6.0610    -5.9780 nb         1 8OP      -0.614000
     24 C4           0.6200    -5.6620    -5.2650 ca         1 8OP       0.352200
     25 H50          0.7470    -2.8290    -0.2010 h1         1 8OP      -0.019800
     26 H50A        -0.7640    -2.7400     0.7140 h1         1 8OP      -0.019800
     27 H40         -2.0030    -3.4130    -1.3730 h1         1 8OP       0.033700
     28 H30         -0.2570    -5.0540     0.2760 h1         1 8OP       0.021700
     29 HO30        -2.2110    -5.8870     0.4600 ho         1 8OP       0.374000
     30 H20          1.0190    -5.8810    -1.5010 h1         1 8OP       0.040700
     31 HO20         0.0220    -7.7940    -1.5390 ho         1 8OP       0.369000
     32 H10         -1.2560    -5.2070    -3.4280 h2         1 8OP       0.054700
     33 HN7          3.7710    -5.1130    -5.0180 hn         1 8OP       0.184500
     34 HN6          3.5640    -5.3920    -8.3210 hn         1 8OP       0.266800
     35 HN6A         3.7960    -7.0100    -7.7440 hn         1 8OP       0.266800
     36 H2          -1.1490    -6.8050    -7.7700 h5         1 8OP      -0.011900
@<TRIPOS>BOND
     1     1     2 1   
     2     1     3 1   
     3     1     4 1   
     4     1     5 1   
     5     5     6 1   
     6     6     7 1   
     7     6    25 1   
     8     6    26 1   
     9     7     8 1   
    10     7     9 1   
    11     7    27 1   
    12     8    13 1   
    13     9    10 1   
    14     9    11 1   
    15     9    28 1   
    16    10    29 1   
    17    11    12 1   
    18    11    13 1   
    19    11    30 1   
    20    12    31 1   
    21    13    14 1   
    22    13    32 1   
    23    14    15 1   
    24    14    24 1   
    25    15    16 2   
    26    15    17 1   
    27    17    18 1   
    28    17    33 1   
    29    18    19 ar  
    30    18    24 ar  
    31    19    20 1   
    32    19    21 ar  
    33    20    34 1   
    34    20    35 1   
    35    21    22 ar  
    36    22    23 ar  
    37    22    36 1   
    38    23    24 ar  
@<TRIPOS>SUBSTRUCTURE
     1 8OP         1 TEMP              0 ****  ****    0 ROOT
