@<TRIPOS>MOLECULE
molecule
   21    21     1     0     0
SMALL
bcc


@<TRIPOS>ATOM
      1 O32          0.0000     0.0000     0.0000 o          1 8OQ      -0.829800
      2 C31          1.2080     0.0000     0.0000 c          1 8OQ       0.889600
      3 O6           1.8790     0.0060    -1.1630 o          1 8OQ      -0.829800
      4 C3           1.9630     0.0000     1.3040 c3         1 8OQ       0.016800
      5 O3           3.2020    -0.6990     1.1720 oh         1 8OQ      -0.620800
      6 C4           1.1060    -0.6100     2.4340 c3         1 8OQ       0.162100
      7 C5           1.5380    -2.0550     2.6910 c3         1 8OQ      -0.090100
      8 O4           1.3180     0.1780     3.6120 os         1 8OQ      -0.451600
      9 C1           2.2700     1.2180     3.3400 c3         1 8OQ       0.313900
     10 O1           1.9150     2.4110     4.0430 oh         1 8OQ      -0.594800
     11 C2           2.1930     1.4500     1.8100 c3         1 8OQ       0.117100
     12 H2           3.6390    -0.4180     0.3850 ho         1 8OQ       0.422000
     13 H3           0.0590    -0.5780     2.1570 h1         1 8OQ       0.108700
     14 H4           0.8160    -2.5370     3.3390 hc         1 8OQ       0.032367
     15 H5           1.5920    -2.5890     1.7500 hc         1 8OQ       0.032367
     16 H6           2.5110    -2.0620     3.1670 hc         1 8OQ       0.032367
     17 H7           3.2660     0.8940     3.6180 h2         1 8OQ       0.027700
     18 H8           2.3270     2.4110     4.8920 ho         1 8OQ       0.385000
     19 H9           3.1270     1.8470     1.4320 h1         1 8OQ       0.037700
     20 O2           1.0900     2.2940     1.4730 oh         1 8OQ      -0.546800
     21 H10          1.4120     3.1360     1.1960 ho         1 8OQ       0.386000
@<TRIPOS>BOND
     1     1     2 1
     2     3     2 1
     3     2     4 1
     4     5     4 1
     5     4     6 1
     6     4    11 1
     7     7     6 1
     8     6     8 1
     9    11     9 1
    10     8     9 1
    11    10     9 1
    12     5    12 1
    13     6    13 1
    14     7    14 1
    15     7    15 1
    16     7    16 1
    17     9    17 1
    18    10    18 1
    19    11    19 1
    20    11    20 1
    21    20    21 1
@<TRIPOS>SUBSTRUCTURE
     1 8OQ         1 TEMP              0 ****  ****    0 ROOT
