@<TRIPOS>MOLECULE
molecule
   55    58     1     0     0
SMALL
bcc


@<TRIPOS>ATOM
      1 C4           0.0000     0.0000     0.0000 ca         1 8OR       0.635100
      2 C5           1.4160     0.0000     0.0000 ca         1 8OR      -0.502200
      3 C6           2.0880     0.0000     1.2350 ca         1 8OR       0.822200
      4 N1           1.3590    -0.0010     2.3470 nb         1 8OR      -0.871000
      5 N3          -0.6460    -0.0060     1.1630 nb         1 8OR      -0.865000
      6 CAA          5.5730    -0.8800     7.5020 c3         1 8OR      -0.226300
      7 OAD          5.7570     1.7410     7.0380 o          1 8OR      -0.612300
      8 OAE          7.5900     0.2990     6.2120 o          1 8OR      -0.612300
      9 CAV          5.3990     0.3520     4.9640 ca         1 8OR      -0.311500
     10 CAI          4.1910     0.9920     4.7560 ca         1 8OR      -0.013500
     11 CAG          3.5480     0.8780     3.5390 ca         1 8OR      -0.166500
     12 CAH          5.9700    -0.4000     3.9530 ca         1 8OR      -0.013500
     13 CAF          5.3320    -0.5190     2.7350 ca         1 8OR      -0.166500
     14 CAU          4.1150     0.1180     2.5240 ca         1 8OR       0.194600
     15 NAR          3.4660    -0.0010     1.2920 nu         1 8OR      -0.734300
     16 CAY          2.1140    -0.0000    -1.2800 c          1 8OR       0.735100
     17 OAC          3.3310    -0.0000    -1.3190 o          1 8OR      -0.650500
     18 NAT          1.3940    -0.0000    -2.4210 ns         1 8OR      -0.426100
     19 CAO          0.0320    -0.0000    -2.4210 cc         1 8OR       0.047600
     20 CAJ         -0.6910     0.0010    -1.2870 cd         1 8OR      -0.351800
     21 C2           0.0320    -0.0010     2.3020 ca         1 8OR       0.980900
     22 NAS         -0.6710    -0.0070     3.4910 nu         1 8OR      -0.936900
     23 CBC         -2.1350    -0.0200     3.4750 c3         1 8OR       0.303500
     24 CAN         -2.6320    -1.4620     3.3440 c3         1 8OR      -0.230400
     25 CAL         -4.1620    -1.4750     3.3280 c3         1 8OR      -0.055400
     26 CAK         -4.6900    -0.8710     4.6300 c3         1 8OR      -0.074400
     27 CAM         -4.1940     0.5700     4.7630 c3         1 8OR      -0.103400
     28 CBB         -2.6650     0.5830     4.7780 c3         1 8OR       0.056500
     29 NAB         -2.1880     1.9670     4.9050 nz         1 8OR      -0.870600
     30 H1           5.7050    -1.8060     6.9550 h1         1 8OR       0.098367
     31 H2           6.1110    -0.9360     8.4410 h1         1 8OR       0.098367
     32 H3           4.5200    -0.7230     7.6990 h1         1 8OR       0.098367
     33 H4           3.7490     1.5850     5.5480 ha         1 8OR       0.153500
     34 H5           2.6000     1.3770     3.3780 ha         1 8OR       0.147000
     35 H6           6.9190    -0.8960     4.1170 ha         1 8OR       0.153500
     36 H7           5.7790    -1.1100     1.9440 ha         1 8OR       0.147000
     37 H8           4.0010    -0.0970     0.4520 hn         1 8OR       0.510800
     38 H9           1.8780    -0.0010    -3.2980 hn         1 8OR       0.352500
     39 H10         -0.4890    -0.0000    -3.3710 h4         1 8OR       0.169000
     40 H11         -1.7740     0.0010    -1.3270 ha         1 8OR       0.168000
     41 H12         -0.1800    -0.0410     4.3620 hn         1 8OR       0.456800
     42 H13         -2.4970     0.5620     2.6370 h1         1 8OR       0.080700
     43 H14         -2.7720    -0.7820     2.5120 hc         1 8OR       0.115700
     44 H15         -2.0450    -2.2610     2.9050 hc         1 8OR       0.115700
     45 H16         -4.5120    -2.4960     3.2360 hc         1 8OR       0.063200
     46 H17         -4.5180    -0.8890     2.4890 hc         1 8OR       0.063200
     47 H18         -5.7730    -0.8800     4.6170 hc         1 8OR       0.072700
     48 H19         -4.3290    -1.4540     5.4690 hc         1 8OR       0.072700
     49 H20         -4.5510     1.1520     3.9210 hc         1 8OR       0.067200
     50 H21         -4.5670     0.9950     5.6860 hc         1 8OR       0.067200
     51 H22         -2.3090    -0.0040     5.6160 hx         1 8OR       0.120700
     52 H23         -1.8320     1.4760     5.7010 hn         1 8OR       0.479133
     53 H24         -1.4950     2.2320     4.2340 hn         1 8OR       0.479133
     54 HAB3        -2.9020     2.6360     5.1140 hn         1 8OR       0.479133
     55 SBD          6.2170     0.5010     6.5180 sy         1 8OR       1.193300
@<TRIPOS>BOND
     1    25    24 1   
     2    25    26 1   
     3    24    23 1   
     4    23    22 1   
     5    23    28 1   
     6    22    21 1   
     7    26    27 1   
     8    21     5 ar  
     9    21     4 ar  
    10    27    28 1   
    11     5     1 ar  
    12    28    29 1   
    13     4     3 ar  
    14     6    55 1   
    15     1    20 1   
    16     1     2 ar  
    17    20    19 2   
    18    12    13 ar  
    19    12     9 ar  
    20    13    14 ar  
    21     3     2 ar  
    22     3    15 1   
    23     2    16 1   
    24     8    55 2   
    25    19    18 1   
    26    55     9 1   
    27    55     7 2   
    28    14    15 1   
    29    14    11 ar  
    30     9    10 ar  
    31    16    18 1   
    32    16    17 2   
    33    10    11 ar  
    34     6    30 1   
    35     6    31 1   
    36     6    32 1   
    37    10    33 1   
    38    11    34 1   
    39    12    35 1   
    40    13    36 1   
    41    15    37 1   
    42    18    38 1   
    43    19    39 1   
    44    20    40 1   
    45    22    41 1   
    46    23    42 1   
    47    24    43 1   
    48    24    44 1   
    49    25    45 1   
    50    25    46 1   
    51    26    47 1   
    52    26    48 1   
    53    27    49 1   
    54    27    50 1   
    55    28    51 1   
    56    29    52 1   
    57    29    53 1   
    58    54    29 1   
@<TRIPOS>SUBSTRUCTURE
     1 8OR         1 TEMP              0 ****  ****    0 ROOT
