@<TRIPOS>MOLECULE
molecule
   43    46     1     0     0
SMALL
bcc


@<TRIPOS>ATOM
      1 C4           0.0000     0.0000     0.0000 ca         1 8OT       0.773200
      2 C5           1.4150     0.0000     0.0000 ca         1 8OT      -0.329600
      3 C6           2.0880     0.0000     1.2480 ca         1 8OT       0.481600
      4 N1           1.3590    -0.0010     2.3740 nb         1 8OT      -0.742000
      5 N3          -0.6300    -0.0010     1.1660 nb         1 8OT      -0.809000
      6 CAQ         -2.1200     0.0060     3.5620 ca         1 8OT      -0.144000
      7 CAR         -2.8280     0.0050     4.7460 ca         1 8OT      -0.089500
      8 CAS         -4.2100     0.0540     4.7290 ca         1 8OT      -0.147000
      9 CAT         -4.8870     0.1040     3.5210 ca         1 8OT      -0.089500
     10 CAU         -4.1790     0.1060     2.3300 ca         1 8OT      -0.144000
     11 CAM         -2.7930     0.0570     2.3520 cp         1 8OT      -0.007500
     12 C2           0.0400    -0.0020     2.3170 cp         1 8OT       0.538500
     13 CAG          3.4870     0.0000     1.2750 ca         1 8OT      -0.202300
     14 CAF          4.1880     0.0010     0.0860 ca         1 8OT       0.194600
     15 NAC          5.6340     0.1370     0.0490 nv         1 8OT      -1.003200
     16 CAE          3.5150     0.0020    -1.1400 ca         1 8OT      -0.167000
     17 CAJ          2.1540     0.0010    -1.1890 ca         1 8OT      -0.081000
     18 NAD         -0.8570     0.1170    -1.1680 nu         1 8OT      -0.942900
     19 CAN         -2.2960    -0.0190    -1.0300 c3         1 8OT       0.247800
     20 CAO         -2.9660     0.2570    -2.3750 c3         1 8OT       0.008900
     21 CAP         -4.4790     0.1140    -2.2300 cc         1 8OT      -0.284400
     22 SAY         -5.2870    -1.2090    -2.3500 ss         1 8OT       0.332200
     23 CAX         -6.7870    -0.8650    -2.1290 cc         1 8OT      -0.323100
     24 CAW         -6.8860     0.5630    -1.8910 cd         1 8OT      -0.183000
     25 CAV         -5.4180     1.1860    -1.9550 cd         1 8OT      -0.180000
     26 H2          -2.3010    -0.0350     5.6920 ha         1 8OT       0.148500
     27 H3          -4.7640     0.0520     5.6610 ha         1 8OT       0.146000
     28 H4          -5.9690     0.1430     3.5080 ha         1 8OT       0.148500
     29 H5          -4.7080     0.1450     1.3860 ha         1 8OT       0.207500
     30 H6           4.0110    -0.0180     2.2230 ha         1 8OT       0.158000
     31 H7           6.0510     1.0470     0.0590 hn         1 8OT       0.428800
     32 H8           6.2130    -0.6790     0.0290 hn         1 8OT       0.428800
     33 H9           4.0770     0.0030    -2.0670 ha         1 8OT       0.136000
     34 H10          1.6440     0.0100    -2.1440 ha         1 8OT       0.121000
     35 H11         -0.4530     0.2640    -2.0720 hn         1 8OT       0.438800
     36 H12         -2.6570     0.6900    -0.2940 h1         1 8OT       0.049700
     37 H13         -2.5350    -1.0260    -0.7080 h1         1 8OT       0.049700
     38 H14         -2.7230     1.2620    -2.7000 hc         1 8OT       0.055200
     39 H15         -2.6090    -0.4550    -3.1090 hc         1 8OT       0.055200
     40 H16         -7.6120    -1.5670    -2.1480 h4         1 8OT       0.192000
     41 H17         -7.8010     1.1130    -1.7020 ha         1 8OT       0.161000
     42 H18         -5.1600     2.2170    -1.7460 ha         1 8OT       0.163000
     43 H1          -1.0370    -0.0330     3.5770 ha         1 8OT       0.207500
@<TRIPOS>BOND
     1    16    17 ar
     2    16    14 ar
     3    17     2 ar
     4    20    19 1
     5    20    21 1
     6    15    14 1
     7    14    13 ar
     8    18    19 1
     9    18     1 1
    10    21    25 2
    11    21    22 1
    12    25    24 1
    13     2     1 ar
    14     2     3 ar
    15     1     5 ar
    16    24    23 2
    17    22    23 1
    18    13     3 ar
    19     3     4 ar
    20     5    12 ar
    21     4    12 ar
    22    12    11 1
    23    11    10 ar
    24    11     6 ar
    25    10     9 ar
    26     6     7 ar
    27     9     8 ar
    28     7     8 ar
    29     6    43 1
    30     7    26 1
    31     8    27 1
    32     9    28 1
    33    10    29 1
    34    13    30 1
    35    15    31 1
    36    15    32 1
    37    16    33 1
    38    17    34 1
    39    18    35 1
    40    19    36 1
    41    19    37 1
    42    20    38 1
    43    20    39 1
    44    23    40 1
    45    24    41 1
    46    25    42 1
@<TRIPOS>SUBSTRUCTURE
     1 8OT         1 TEMP              0 ****  ****    0 ROOT
