@<TRIPOS>MOLECULE
8OU
   50    54     1     0     0
SMALL
bcc


@<TRIPOS>ATOM
      1 C4           0.0000     0.0000     0.0000 ca         1 8OU       0.522600
      2 C5           1.4010     0.0000     0.0000 ca         1 8OU      -0.575200
      3 C6           2.0680     0.0000     1.2390 ca         1 8OU       0.616200
      4 N1           1.3330    -0.0010     2.3490 nb         1 8OU      -0.761000
      5 N3          -0.6520    -0.0010     1.1370 nb         1 8OU      -0.701000
      6 CAL          0.1910    -0.0020     4.6330 c3         1 8OU       0.141300
      7 CAJ         -0.6320    -0.1490     5.9150 c3         1 8OU      -0.042900
      8 CBA         -1.6250     1.0110     6.0150 c3         1 8OU       0.186100
      9 OAC         -0.9100     2.2460     6.0970 oh         1 8OU      -0.585800
     10 CAK         -2.5170     1.0180     4.7690 c3         1 8OU      -0.042900
     11 CAM         -1.6400     1.1310     3.5210 c3         1 8OU       0.141300
     12 NBB         -0.7070    -0.0020     3.4710 nh         1 8OU      -0.437300
     13 C2           0.0090    -0.0020     2.2920 ca         1 8OU       0.779900
     14 CAF         -0.6920    -0.0060    -1.3410 c3         1 8OU      -0.190000
     15 CAD          0.1900    -0.0110    -2.5720 c2         1 8OU       0.511200
     16 NAR          1.4750    -0.0100    -2.4530 ne         1 8OU      -0.562100
     17 CAV          2.1200     0.0010    -1.2780 c          1 8OU       0.768100
     18 OAB          3.3370     0.0020    -1.2710 o          1 8OU      -0.589100
     19 NAQ          3.4460    -0.0010     1.3030 nu         1 8OU      -0.282300
     20 CAS          4.0910    -0.1230     2.5400 ca         1 8OU      -0.051400
     21 CAI          5.2920     0.5210     2.7550 ca         1 8OU      -0.043000
     22 CAW          5.9290     0.3920     3.9960 ca         1 8OU      -0.249900
     23 CAH          7.1700     0.9180     4.5550 cc         1 8OU       0.432800
     24 NAN          7.2770     0.4740     5.7750 nd         1 8OU      -0.620100
     25 NBC          6.1770    -0.3300     6.0910 na         1 8OU       0.448900
     26 CAA          5.9550    -1.0020     7.3750 c3         1 8OU       0.038600
     27 CAY          5.3390    -0.3900     5.0060 ca         1 8OU      -0.173200
     28 CAG          4.1250    -1.0300     4.7620 ca         1 8OU      -0.106000
     29 CAE          3.5110    -0.8920     3.5500 ca         1 8OU      -0.065000
     30 H1           0.8830    -0.8320     4.5530 h1         1 8OU       0.035450
     31 H2           0.7400     0.9310     4.6640 h1         1 8OU       0.035450
     32 H3          -1.1740    -1.0870     5.8890 hc         1 8OU       0.025450
     33 H4           0.0300    -0.1320     6.7720 hc         1 8OU       0.025450
     34 H5          -2.2410     0.8840     6.8980 h1         1 8OU      -0.002300
     35 H6          -1.1290     2.6830     6.9040 ho         1 8OU       0.389000
     36 H7          -3.0850     0.0970     4.7280 hc         1 8OU       0.025450
     37 H8          -3.1920     1.8640     4.8140 hc         1 8OU       0.025450
     38 H9          -1.0790     2.0580     3.5590 h1         1 8OU       0.035450
     39 H10         -2.2670     1.1190     2.6380 h1         1 8OU       0.035450
     40 H11         -1.3250     0.8720    -1.3910 hc         1 8OU       0.055200
     41 H12         -1.3250    -0.8840    -1.3840 hc         1 8OU       0.055200
     42 H13         -0.2600    -0.0200    -3.5570 h4         1 8OU      -0.009200
     43 H14          3.9860     0.0910     0.4650 hn         1 8OU       0.346800
     44 H15          5.6650     1.2300     2.0260 ha         1 8OU       0.111000
     45 H16          7.8770     1.5620     4.0460 h4         1 8OU       0.014800
     46 H17          6.7780    -0.7820     8.0440 h1         1 8OU       0.016367
     47 H18          5.0290    -0.6470     7.8120 h1         1 8OU       0.016367
     48 H19          5.8940    -2.0720     7.2170 h1         1 8OU       0.016367
     49 H20          3.6640    -1.6290     5.5370 ha         1 8OU       0.105000
     50 H21          2.5710    -1.3980     3.3660 ha         1 8OU       0.135000
@<TRIPOS>BOND
     1     1     2 ar  
     2     1     5 ar  
     3     1    14 1   
     4     2     3 ar  
     5     2    17 1   
     6     3     4 ar  
     7     3    19 1   
     8     4    13 ar  
     9     5    13 ar  
    10     6     7 1   
    11     6    12 1   
    12     6    30 1   
    13     6    31 1   
    14     7     8 1   
    15     7    32 1   
    16     7    33 1   
    17     8     9 1   
    18     8    10 1   
    19     8    34 1   
    20     9    35 1   
    21    10    11 1   
    22    10    36 1   
    23    10    37 1   
    24    11    12 1   
    25    11    38 1   
    26    11    39 1   
    27    12    13 1   
    28    14    15 1   
    29    14    40 1   
    30    14    41 1   
    31    15    16 2   
    32    15    42 1   
    33    16    17 1   
    34    17    18 2   
    35    19    20 1   
    36    19    43 1   
    37    20    21 ar  
    38    20    29 ar  
    39    21    22 ar  
    40    21    44 1   
    41    22    23 1   
    42    22    27 ar  
    43    23    24 2   
    44    23    45 1   
    45    24    25 1   
    46    25    26 1   
    47    25    27 1   
    48    26    46 1   
    49    26    47 1   
    50    26    48 1   
    51    27    28 ar  
    52    28    29 ar  
    53    28    49 1   
    54    29    50 1   
@<TRIPOS>SUBSTRUCTURE
     1 8OU         1 TEMP              0 ****  ****    0 ROOT
