@<TRIPOS>MOLECULE
molecule
   50    54     1     0     0
SMALL
bcc


@<TRIPOS>ATOM
      1 C4           0.0000     0.0000     0.0000 ca         1 8OU       0.556600
      2 C5           1.4010     0.0000     0.0000 ca         1 8OU      -0.555200
      3 C6           2.0680     0.0000     1.2390 ca         1 8OU       0.800200
      4 N1           1.3330    -0.0010     2.3490 nb         1 8OU      -0.857000
      5 N3          -0.6520    -0.0010     1.1370 nb         1 8OU      -0.802000
      6 CAL          0.1910    -0.0020     4.6330 c3         1 8OU       0.180300
      7 CAJ         -0.6320    -0.1490     5.9150 c3         1 8OU      -0.092400
      8 CBA         -1.6250     1.0110     6.0150 c3         1 8OU       0.139100
      9 OAC         -0.9100     2.2460     6.0970 oh         1 8OU      -0.606800
     10 CAK         -2.5170     1.0180     4.7690 c3         1 8OU      -0.092400
     11 CAM         -1.6400     1.1310     3.5210 c3         1 8OU       0.180300
     12 NBB         -0.7070    -0.0020     3.4710 nh         1 8OU      -0.683300
     13 C2           0.0090    -0.0020     2.2920 ca         1 8OU       0.942900
     14 CAF         -0.6920    -0.0060    -1.3410 c3         1 8OU      -0.263000
     15 CAD          0.1900    -0.0110    -2.5720 c2         1 8OU       0.537200
     16 NAR          1.4750    -0.0100    -2.4530 ne         1 8OU      -0.669100
     17 CAV          2.1200     0.0010    -1.2780 c          1 8OU       0.753100
     18 OAB          3.3370     0.0020    -1.2710 o          1 8OU      -0.549100
     19 NAQ          3.4460    -0.0010     1.3030 nu         1 8OU      -0.740300
     20 CAS          4.0910    -0.1230     2.5400 ca         1 8OU       0.107600
     21 CAI          5.2920     0.5210     2.7550 ca         1 8OU      -0.090000
     22 CAW          5.9290     0.3920     3.9960 ca         1 8OU      -0.237900
     23 CAH          7.1700     0.9180     4.5550 cc         1 8OU       0.374800
     24 NAN          7.2770     0.4740     5.7750 nd         1 8OU      -0.500100
     25 NBC          6.1770    -0.3300     6.0910 na         1 8OU       0.052900
     26 CAA          5.9550    -1.0020     7.3750 c3         1 8OU       0.074600
     27 CAY          5.3390    -0.3900     5.0060 ca         1 8OU      -0.027200
     28 CAG          4.1250    -1.0300     4.7620 ca         1 8OU      -0.147000
     29 CAE          3.5110    -0.8920     3.5500 ca         1 8OU      -0.082000
     30 H1           0.8830    -0.8320     4.5530 h1         1 8OU       0.063450
     31 H2           0.7400     0.9310     4.6640 h1         1 8OU       0.063450
     32 H3          -1.1740    -1.0870     5.8890 hc         1 8OU       0.056700
     33 H4           0.0300    -0.1320     6.7720 hc         1 8OU       0.056700
     34 H5          -2.2410     0.8840     6.8980 h1         1 8OU       0.032700
     35 H6          -1.1290     2.6830     6.9040 ho         1 8OU       0.402000
     36 H7          -3.0850     0.0970     4.7280 hc         1 8OU       0.056700
     37 H8          -3.1920     1.8640     4.8140 hc         1 8OU       0.056700
     38 H9          -1.0790     2.0580     3.5590 h1         1 8OU       0.063450
     39 H10         -2.2670     1.1190     2.6380 h1         1 8OU       0.063450
     40 H11         -1.3250     0.8720    -1.3910 hc         1 8OU       0.095200
     41 H12         -1.3250    -0.8840    -1.3840 hc         1 8OU       0.095200
     42 H13         -0.2600    -0.0200    -3.5570 h4         1 8OU       0.045800
     43 H14          3.9860     0.0910     0.4650 hn         1 8OU       0.499800
     44 H15          5.6650     1.2300     2.0260 ha         1 8OU       0.140000
     45 H16          7.8770     1.5620     4.0460 h4         1 8OU       0.062800
     46 H17          6.7780    -0.7820     8.0440 h1         1 8OU       0.050700
     47 H18          5.0290    -0.6470     7.8120 h1         1 8OU       0.050700
     48 H19          5.8940    -2.0720     7.2170 h1         1 8OU       0.050700
     49 H20          3.6640    -1.6290     5.5370 ha         1 8OU       0.130000
     50 H21          2.5710    -1.3980     3.3660 ha         1 8OU       0.159000
@<TRIPOS>BOND
     1     1     2 ar  
     2     1     5 ar  
     3     1    14 1   
     4     2     3 ar  
     5     2    17 1   
     6     3     4 ar  
     7     3    19 1   
     8     4    13 ar  
     9     5    13 ar  
    10     6     7 1   
    11     6    12 1   
    12     7     8 1   
    13     8     9 1   
    14     8    10 1   
    15    10    11 1   
    16    11    12 1   
    17    12    13 1   
    18    14    15 1   
    19    15    16 2   
    20    16    17 1   
    21    17    18 2   
    22    19    20 1   
    23    20    21 ar  
    24    20    29 ar  
    25    21    22 ar  
    26    22    23 1   
    27    22    27 ar  
    28    23    24 2   
    29    24    25 1   
    30    25    26 1   
    31    25    27 1   
    32    27    28 ar  
    33    28    29 ar  
    34     6    30 1   
    35     6    31 1   
    36     7    32 1   
    37     7    33 1   
    38     8    34 1   
    39     9    35 1   
    40    10    36 1   
    41    10    37 1   
    42    11    38 1   
    43    11    39 1   
    44    14    40 1   
    45    14    41 1   
    46    15    42 1   
    47    19    43 1   
    48    21    44 1   
    49    23    45 1   
    50    26    46 1   
    51    26    47 1   
    52    26    48 1   
    53    28    49 1   
    54    29    50 1   
@<TRIPOS>SUBSTRUCTURE
     1 8OU         1 TEMP              0 ****  ****    0 ROOT
