@<TRIPOS>MOLECULE
8OV
   70    73     1     0     0
SMALL
bcc


@<TRIPOS>ATOM
      1 N1           0.0000     0.0000     0.0000 nb         1 8OV      -0.743000
      2 N3          -0.0700    -0.0000     2.3130 nb         1 8OV      -0.755000
      3 C4           1.2560     0.0010     2.3870 ca         1 8OV       0.624200
      4 C5           2.0010     0.0000     1.2050 ca         1 8OV      -0.609900
      5 C6           1.3250     0.0000     0.0000 ca         1 8OV       0.585200
      6 C7           3.5080     0.0010     1.2430 c3         1 8OV       0.667200
      7 C13         -0.0040     0.9010     4.8100 ca         1 8OV      -0.116000
      8 C15         -0.3470     0.3560     7.1160 ca         1 8OV      -0.112000
      9 C17          1.5430    -0.5500     5.9410 ca         1 8OV      -0.161000
     10 C20          0.6970    -2.2020    10.4250 c3         1 8OV      -0.098400
     11 C21         -0.5380    -2.6710    11.1960 c3         1 8OV       0.021900
     12 C24         -2.7290    -0.1190    -0.1360 ca         1 8OV      -0.069400
     13 C26         -4.5870     0.4330    -1.5590 ca         1 8OV      -0.226000
     14 C28         -2.8390    -1.0140    -2.3570 ca         1 8OV      -0.189000
     15 C2          -0.6810    -0.0010     1.1380 ca         1 8OV       0.756900
     16 F8           4.0070     0.0020    -0.0650 f          1 8OV      -0.211633
     17 F9           3.9570     1.1440     1.9130 f          1 8OV      -0.211633
     18 F10          3.9580    -1.1410     1.9140 f          1 8OV      -0.211633
     19 N11          1.8930     0.0020     3.6190 nu         1 8OV      -0.291300
     20 C12          1.1430     0.1170     4.7920 ca         1 8OV       0.008600
     21 C14         -0.7440     1.0200     5.9720 ca         1 8OV      -0.065000
     22 C16          0.7950    -0.4330     7.1050 ca         1 8OV      -0.068400
     23 N18          1.1950    -1.1050     8.2650 ns         1 8OV      -0.041100
     24 C19          0.2700    -1.5900     9.1160 c          1 8OV       0.557100
     25 O22         -0.9070    -1.5340     8.8280 o          1 8OV      -0.627100
     26 N23         -2.0650    -0.0010     1.0950 nu         1 8OV      -0.246300
     27 C25         -3.9330     0.5510    -0.3440 ca         1 8OV       0.154100
     28 C27         -4.0420    -0.3520    -2.5660 ca         1 8OV       0.052600
     29 C29         -2.1850    -0.8970    -1.1460 ca         1 8OV      -0.032000
     30 N30         -4.7020    -0.4710    -3.7950 nh         1 8OV      -0.360000
     31 C31         -3.9530    -1.3390    -4.7120 c3         1 8OV       0.118800
     32 C32         -4.7900    -1.5900    -5.9710 c3         1 8OV       0.049000
     33 N33         -5.1920    -0.2910    -6.5320 n          1 8OV      -0.166800
     34 C34         -5.8280     0.6870    -5.6340 c3         1 8OV       0.049000
     35 C35         -4.9490     0.8490    -4.3900 c3         1 8OV       0.118800
     36 C36         -4.9850    -0.0050    -7.8320 c          1 8OV       0.590100
     37 O37         -4.5550    -0.8570    -8.5800 o          1 8OV      -0.645100
     38 C38         -5.2870     1.3750    -8.3580 c3         1 8OV      -0.073100
     39 O39         -4.4650     1.3190     0.6440 os         1 8OV      -0.313900
     40 C40         -5.7000     1.9770     0.3600 c3         1 8OV       0.248700
     41 H1           1.8730    -0.0000    -0.9350 h4         1 8OV      -0.006900
     42 H2          -0.3170     1.4230     3.9130 ha         1 8OV       0.133000
     43 H3          -0.9300     0.4500     8.0250 ha         1 8OV       0.137000
     44 H4           2.4350    -1.1640     5.9300 ha         1 8OV       0.110000
     45 H5           1.2090    -1.4360    10.9940 hc         1 8OV       0.025200
     46 H6           1.3640    -3.0410    10.2670 hc         1 8OV       0.025200
     47 H7          -1.1030    -3.3650    10.5860 hc         1 8OV       0.010033
     48 H8          -1.1580    -1.8160    11.4380 hc         1 8OV       0.010033
     49 H9          -0.2280    -3.1630    12.1100 hc         1 8OV       0.010033
     50 H10         -5.5240     0.9510    -1.7230 ha         1 8OV       0.132000
     51 H11         -2.4140    -1.6250    -3.1450 ha         1 8OV       0.127000
     52 H12          2.8900    -0.0620     3.6670 hn         1 8OV       0.298800
     53 H13         -1.6360     1.6330     5.9840 ha         1 8OV       0.105000
     54 H14          2.1690    -1.2100     8.4710 hn         1 8OV       0.166500
     55 H15         -2.5910     0.0440     1.9450 hn         1 8OV       0.300800
     56 H16         -1.2470    -1.4150    -0.9860 ha         1 8OV       0.136000
     57 H17         -3.7430    -2.2830    -4.2250 h1         1 8OV       0.027200
     58 H18         -3.0240    -0.8550    -4.9880 h1         1 8OV       0.027200
     59 H19         -5.6730    -2.1630    -5.7120 h1         1 8OV       0.035700
     60 H20         -4.1980    -2.1320    -6.6990 h1         1 8OV       0.035700
     61 H21         -5.9180     1.6400    -6.1420 h1         1 8OV       0.035700
     62 H22         -6.8080     0.3290    -5.3420 h1         1 8OV       0.035700
     63 H23         -5.4560     1.4800    -3.6700 h1         1 8OV       0.027200
     64 H24         -4.0040     1.2990    -4.6720 h1         1 8OV       0.027200
     65 H25         -5.0940     1.4050    -9.4230 hc         1 8OV       0.024367
     66 H26         -6.3270     1.6120    -8.1720 hc         1 8OV       0.024367
     67 H27         -4.6560     2.0990    -7.8560 hc         1 8OV       0.024367
     68 H28         -5.5620     2.6640    -0.4660 h1         1 8OV      -0.000633
     69 H29         -6.4490     1.2410     0.0960 h1         1 8OV      -0.000633
     70 H30         -6.0270     2.5260     1.2350 h1         1 8OV      -0.000633
@<TRIPOS>BOND
     1     1     5 ar  
     2     1    15 ar  
     3     2     3 ar  
     4     2    15 ar  
     5     3     4 ar  
     6     3    19 1   
     7     4     5 ar  
     8     4     6 1   
     9     5    41 1   
    10     6    16 1   
    11     6    17 1   
    12     6    18 1   
    13     7    20 ar  
    14     7    21 ar  
    15     7    42 1   
    16     8    21 ar  
    17     8    22 ar  
    18     8    43 1   
    19     9    20 ar  
    20     9    22 ar  
    21     9    44 1   
    22    10    11 1   
    23    10    24 1   
    24    10    45 1   
    25    10    46 1   
    26    11    47 1   
    27    11    48 1   
    28    11    49 1   
    29    12    26 1   
    30    12    27 ar  
    31    12    29 ar  
    32    13    27 ar  
    33    13    28 ar  
    34    13    50 1   
    35    14    28 ar  
    36    14    29 ar  
    37    14    51 1   
    38    15    26 1   
    39    19    20 1   
    40    19    52 1   
    41    21    53 1   
    42    22    23 1   
    43    23    24 1   
    44    23    54 1   
    45    24    25 2   
    46    26    55 1   
    47    27    39 1   
    48    28    30 1   
    49    29    56 1   
    50    30    31 1   
    51    30    35 1   
    52    31    32 1   
    53    31    57 1   
    54    31    58 1   
    55    32    33 1   
    56    32    59 1   
    57    32    60 1   
    58    33    34 1   
    59    33    36 1   
    60    34    35 1   
    61    34    61 1   
    62    34    62 1   
    63    35    63 1   
    64    35    64 1   
    65    36    37 2   
    66    36    38 1   
    67    38    65 1   
    68    38    66 1   
    69    38    67 1   
    70    39    40 1   
    71    40    68 1   
    72    40    69 1   
    73    40    70 1   
@<TRIPOS>SUBSTRUCTURE
     1 8OV         1 TEMP              0 ****  ****    0 ROOT
