@<TRIPOS>MOLECULE
8OW
   43    46     1     0     0
SMALL
bcc


@<TRIPOS>ATOM
      1 C4           0.0000     0.0000     0.0000 ca         1 8OW       0.577200
      2 C5           1.4160     0.0000     0.0000 ca         1 8OW      -0.373600
      3 C6           2.0870     0.0000     1.2490 ca         1 8OW       0.497600
      4 N1           1.3590     0.0000     2.3740 nb         1 8OW      -0.689000
      5 N3          -0.6300    -0.0000     1.1650 nb         1 8OW      -0.741000
      6 CAU         -2.9390     1.2170    -3.2190 ca         1 8OW      -0.057000
      7 CAV         -3.4170     1.2230    -4.5150 ca         1 8OW      -0.135000
      8 CAW         -3.6580     0.0260    -5.1690 ca         1 8OW       0.113900
      9 FAZ         -4.1260     0.0320    -6.4370 f          1 8OW      -0.126900
     10 CAX         -3.4180    -1.1740    -4.5240 ca         1 8OW      -0.135000
     11 CAY         -2.9390    -1.1780    -3.2280 ca         1 8OW      -0.057000
     12 CAT         -2.6940     0.0170    -2.5770 ca         1 8OW      -0.141300
     13 CAN         -2.1710     0.0110    -1.1640 c3         1 8OW       0.227100
     14 NAL         -0.7070     0.0050    -1.1850 nu         1 8OW      -0.491900
     15 CAF          2.1540    -0.0010    -1.1890 ca         1 8OW      -0.016000
     16 CAA          3.5150    -0.0010    -1.1410 ca         1 8OW      -0.185000
     17 CAB          4.1880    -0.0010     0.0870 ca         1 8OW       0.081600
     18 NAM          5.5810    -0.0010     0.1090 nv         1 8OW      -0.432200
     19 CAC          3.4860    -0.0000     1.2760 ca         1 8OW      -0.279300
     20 C2           0.0400     0.0000     2.3160 cp         1 8OW       0.728500
     21 CAK         -0.7280    -0.0010     3.5850 cp         1 8OW      -0.161500
     22 CAO         -0.0570    -0.0010     4.8080 ca         1 8OW      -0.061500
     23 CAP         -0.7760    -0.0010     5.9860 ca         1 8OW      -0.120500
     24 CAQ         -2.1600    -0.0010     5.9550 ca         1 8OW      -0.089000
     25 CAR         -2.8300    -0.0010     4.7450 ca         1 8OW      -0.120500
     26 CAS         -2.1210     0.0050     3.5610 ca         1 8OW      -0.061500
     27 H1          -2.7480     2.1530    -2.7080 ha         1 8OW       0.113000
     28 H2          -3.6090     2.1630    -5.0180 ha         1 8OW       0.122000
     29 H3          -3.6080    -2.1110    -5.0350 ha         1 8OW       0.122000
     30 H4          -2.7490    -2.1180    -2.7230 ha         1 8OW       0.113000
     31 H5          -2.5290    -0.8730    -0.6510 h1         1 8OW       0.031700
     32 H6          -2.5210     0.8960    -0.6460 h1         1 8OW       0.031700
     33 H7          -0.2190     0.0010    -2.0580 hn         1 8OW       0.302800
     34 H8           1.6450    -0.0010    -2.1450 ha         1 8OW       0.096000
     35 H9           4.0830    -0.0010    -2.0630 ha         1 8OW       0.108000
     36 H10          6.0950    -0.0020    -0.7500 hn         1 8OW       0.267300
     37 H11          6.0680    -0.0010     0.9830 hn         1 8OW       0.267300
     38 H12          4.0140    -0.0000     2.2220 ha         1 8OW       0.128000
     39 H13          1.0260    -0.0010     4.8330 ha         1 8OW       0.122500
     40 H14         -0.2570    -0.0010     6.9370 ha         1 8OW       0.101500
     41 H15         -2.7210    -0.0030     6.8820 ha         1 8OW       0.098000
     42 H16         -3.9130     0.0020     4.7270 ha         1 8OW       0.101500
     43 H17         -2.6470     0.0050     2.6140 ha         1 8OW       0.122500
@<TRIPOS>BOND
     1     1     2 ar  
     2     1     5 ar  
     3     1    14 1   
     4     2     3 ar  
     5     2    15 ar  
     6     3     4 ar  
     7     3    19 ar  
     8     4    20 ar  
     9     5    20 ar  
    10     6     7 ar  
    11     6    12 ar  
    12     6    27 1   
    13     7     8 ar  
    14     7    28 1   
    15     8     9 1   
    16     8    10 ar  
    17    10    11 ar  
    18    10    29 1   
    19    11    12 ar  
    20    11    30 1   
    21    12    13 1   
    22    13    14 1   
    23    13    31 1   
    24    13    32 1   
    25    14    33 1   
    26    15    16 ar  
    27    15    34 1   
    28    16    17 ar  
    29    16    35 1   
    30    17    18 1   
    31    17    19 ar  
    32    18    36 1   
    33    18    37 1   
    34    19    38 1   
    35    20    21 1   
    36    21    22 ar  
    37    21    26 ar  
    38    22    23 ar  
    39    22    39 1   
    40    23    24 ar  
    41    23    40 1   
    42    24    25 ar  
    43    24    41 1   
    44    25    26 ar  
    45    25    42 1   
    46    26    43 1   
@<TRIPOS>SUBSTRUCTURE
     1 8OW         1 TEMP              0 ****  ****    0 ROOT
