@<TRIPOS>MOLECULE
molecule
   43    46     1     0     0
SMALL
bcc


@<TRIPOS>ATOM
      1 C4           0.0000     0.0000     0.0000 ca         1 8OW       0.760200
      2 C5           1.4160     0.0000     0.0000 ca         1 8OW      -0.373600
      3 C6           2.0870     0.0000     1.2490 ca         1 8OW       0.527600
      4 N1           1.3590     0.0000     2.3740 nb         1 8OW      -0.785000
      5 N3          -0.6300    -0.0000     1.1650 nb         1 8OW      -0.844000
      6 CAU         -2.9390     1.2170    -3.2190 ca         1 8OW      -0.086000
      7 CAV         -3.4170     1.2230    -4.5150 ca         1 8OW      -0.171000
      8 CAW         -3.6580     0.0260    -5.1690 ca         1 8OW       0.142900
      9 FAZ         -4.1260     0.0320    -6.4370 f          1 8OW      -0.137900
     10 CAX         -3.4180    -1.1740    -4.5240 ca         1 8OW      -0.171000
     11 CAY         -2.9390    -1.1780    -3.2280 ca         1 8OW      -0.086000
     12 CAT         -2.6940     0.0170    -2.5770 ca         1 8OW      -0.139300
     13 CAN         -2.1710     0.0110    -1.1640 c3         1 8OW       0.290100
     14 NAL         -0.7070     0.0050    -1.1850 nu         1 8OW      -0.901900
     15 CAF          2.1540    -0.0010    -1.1890 ca         1 8OW      -0.046000
     16 CAA          3.5150    -0.0010    -1.1410 ca         1 8OW      -0.209000
     17 CAB          4.1880    -0.0010     0.0870 ca         1 8OW       0.234600
     18 NAM          5.5810    -0.0010     0.1090 nv         1 8OW      -0.912200
     19 CAC          3.4860    -0.0000     1.2760 ca         1 8OW      -0.293300
     20 C2           0.0400     0.0000     2.3160 cp         1 8OW       0.800500
     21 CAK         -0.7280    -0.0010     3.5850 cp         1 8OW      -0.143500
     22 CAO         -0.0570    -0.0010     4.8080 ca         1 8OW      -0.082500
     23 CAP         -0.7760    -0.0010     5.9860 ca         1 8OW      -0.147500
     24 CAQ         -2.1600    -0.0010     5.9550 ca         1 8OW      -0.113000
     25 CAR         -2.8300    -0.0010     4.7450 ca         1 8OW      -0.147500
     26 CAS         -2.1210     0.0050     3.5610 ca         1 8OW      -0.082500
     27 H1          -2.7480     2.1530    -2.7080 ha         1 8OW       0.143000
     28 H2          -3.6090     2.1630    -5.0180 ha         1 8OW       0.149000
     29 H3          -3.6080    -2.1110    -5.0350 ha         1 8OW       0.149000
     30 H4          -2.7490    -2.1180    -2.7230 ha         1 8OW       0.143000
     31 H5          -2.5290    -0.8730    -0.6510 h1         1 8OW       0.061700
     32 H6          -2.5210     0.8960    -0.6460 h1         1 8OW       0.061700
     33 H7          -0.2190     0.0010    -2.0580 hn         1 8OW       0.451800
     34 H8           1.6450    -0.0010    -2.1450 ha         1 8OW       0.122000
     35 H9           4.0830    -0.0010    -2.0630 ha         1 8OW       0.130000
     36 H10          6.0950    -0.0020    -0.7500 hn         1 8OW       0.433300
     37 H11          6.0680    -0.0010     0.9830 hn         1 8OW       0.433300
     38 H12          4.0140    -0.0000     2.2220 ha         1 8OW       0.150000
     39 H13          1.0260    -0.0010     4.8330 ha         1 8OW       0.152500
     40 H14         -0.2570    -0.0010     6.9370 ha         1 8OW       0.129500
     41 H15         -2.7210    -0.0030     6.8820 ha         1 8OW       0.127000
     42 H16         -3.9130     0.0020     4.7270 ha         1 8OW       0.129500
     43 H17         -2.6470     0.0050     2.6140 ha         1 8OW       0.152500
@<TRIPOS>BOND
     1    18    17 1
     2    17    19 ar
     3    17    16 ar
     4    19     3 ar
     5    16    15 ar
     6     3     4 ar
     7     3     2 ar
     8     4    20 ar
     9    26    25 ar
    10    26    21 ar
    11    25    24 ar
    12    15     2 ar
    13     2     1 ar
    14    20    21 1
    15    20     5 ar
    16    21    22 ar
    17    24    23 ar
    18     1     5 ar
    19     1    14 1
    20    22    23 ar
    21    14    13 1
    22    13    12 1
    23    11    12 ar
    24    11    10 ar
    25    12     6 ar
    26    10     8 ar
    27     6     7 ar
    28     8     7 ar
    29     8     9 1
    30     6    27 1
    31     7    28 1
    32    10    29 1
    33    11    30 1
    34    13    31 1
    35    13    32 1
    36    14    33 1
    37    15    34 1
    38    16    35 1
    39    18    36 1
    40    18    37 1
    41    19    38 1
    42    22    39 1
    43    23    40 1
    44    24    41 1
    45    25    42 1
    46    26    43 1
@<TRIPOS>SUBSTRUCTURE
     1 8OW         1 TEMP              0 ****  ****    0 ROOT
