@<TRIPOS>MOLECULE
molecule
   33    35     1     0     0
SMALL
bcc


@<TRIPOS>ATOM
      1 O50          0.0000     0.0000     0.0000 oh         1 8OX      -0.593800
      2 C50          1.4300     0.0000     0.0000 c3         1 8OX       0.140400
      3 C40          1.9390     0.0000     1.4420 c3         1 8OX       0.126100
      4 O40          1.5930    -1.2390     2.0830 os         1 8OX      -0.385600
      5 C30          3.4760     0.1100     1.4550 c3         1 8OX       0.098100
      6 O30          3.8890     1.2850     2.1540 oh         1 8OX      -0.572800
      7 C20          3.9410    -1.1600     2.2080 c3         1 8OX       0.091100
      8 O20          5.0180    -0.8600     3.0980 oh         1 8OX      -0.569800
      9 C10          2.6660    -1.5540     2.9970 c3         1 8OX       0.326500
     10 N9           2.6750    -2.9860     3.3090 n          1 8OX      -0.421300
     11 C8           2.7030    -3.9870     2.4070 c          1 8OX       0.807500
     12 O8           2.7270    -3.8420     1.1990 o          1 8OX      -0.651500
     13 N7           2.7020    -5.1720     3.0480 ns         1 8OX      -0.441100
     14 C5           2.6710    -4.9230     4.4170 ca         1 8OX      -0.329000
     15 C6           2.6580    -5.7250     5.5560 ca         1 8OX       0.747200
     16 N6           2.6740    -7.1090     5.4490 nv         1 8OX      -1.003500
     17 N1           2.6280    -5.1370     6.7500 nb         1 8OX      -0.807000
     18 C2           2.6130    -3.8230     6.8580 ca         1 8OX       0.732900
     19 N3           2.6240    -3.0300     5.8050 nb         1 8OX      -0.774000
     20 C4           2.6600    -3.5370     4.5770 ca         1 8OX       0.566200
     21 HO50        -0.3140     0.1940    -0.8680 ho         1 8OX       0.401000
     22 H50          1.7910     0.8850    -0.5110 h1         1 8OX       0.031700
     23 H50A         1.7910    -0.8850    -0.5110 h1         1 8OX       0.031700
     24 H40          1.5080     0.8290     1.9900 h1         1 8OX       0.082700
     25 H30          3.8620     0.1090     0.4430 h1         1 8OX       0.048700
     26 HO30         4.3060     1.8790     1.5520 ho         1 8OX       0.403000
     27 H20          4.2160    -1.9410     1.5090 h1         1 8OX       0.077700
     28 HO20         5.7910    -1.3260     2.8250 ho         1 8OX       0.403000
     29 H10          2.5810    -0.9620     3.9000 h2         1 8OX       0.116700
     30 HN7          2.7200    -6.0740     2.6150 hn         1 8OX       0.355500
     31 HN6          2.6630    -7.6750     6.2750 hn         1 8OX       0.444800
     32 HN6A         2.6970    -7.5410     4.5470 hn         1 8OX       0.444800
     33 H2           2.5880    -3.3790     7.8460 h5         1 8OX       0.068100
@<TRIPOS>BOND
     1     1     2 1
     2     2     3 1
     3     3     4 1
     4     3     5 1
     5     4     9 1
     6     5     6 1
     7     5     7 1
     8     7     8 1
     9     7     9 1
    10     9    10 1
    11    10    11 1
    12    10    20 1
    13    11    12 2
    14    11    13 1
    15    13    14 1
    16    14    15 ar
    17    14    20 ar
    18    15    16 1
    19    15    17 ar
    20    17    18 ar
    21    18    19 ar
    22    19    20 ar
    23     1    21 1
    24     2    22 1
    25     2    23 1
    26     3    24 1
    27     5    25 1
    28     6    26 1
    29     7    27 1
    30     8    28 1
    31     9    29 1
    32    13    30 1
    33    16    31 1
    34    16    32 1
    35    18    33 1
@<TRIPOS>SUBSTRUCTURE
     1 8OX         1 TEMP              0 ****  ****    0 ROOT
