@<TRIPOS>MOLECULE
molecule
   58    61     1     0     0
SMALL
bcc


@<TRIPOS>ATOM
      1 O01          0.0000     0.0000     0.0000 o          1 8OY      -0.593100
      2 C02          1.2150     0.0000     0.0000 c          1 8OY       0.562600
      3 C03          1.9560     0.0000     1.2830 ca         1 8OY       0.385800
      4 N04          3.2840     0.0000     1.2770 nb         1 8OY      -0.690000
      5 C05          3.9780     0.0010     2.3940 ca         1 8OY       0.423600
      6 C06          5.4840     0.0020     2.3310 c3         1 8OY      -0.121700
      7 C07          5.9600    -1.1810     1.4830 c3         1 8OY      -0.064700
      8 C08          7.4790    -1.1100     1.3170 c3         1 8OY      -0.076400
      9 C09          7.9550    -2.2920     0.4690 c3         1 8OY      -0.078400
     10 C10          7.5790    -3.6010     1.1650 c3         1 8OY      -0.080400
     11 C11          6.0590    -3.6720     1.3310 c3         1 8OY      -0.078400
     12 C12          5.5830    -2.4910     2.1780 c3         1 8OY      -0.076400
     13 C13          3.3450     0.0020     3.6260 ca         1 8OY      -0.242300
     14 C14          1.9610     0.0010     3.6780 ca         1 8OY      -0.105000
     15 C15          1.2530     0.0060     2.4860 ca         1 8OY      -0.199300
     16 N16          1.8890    -0.0060    -1.1670 ns         1 8OY      -0.442100
     17 C17          1.1950    -0.1000    -2.3730 ca         1 8OY      -0.048400
     18 C18         -0.0660     0.4720    -2.4940 ca         1 8OY      -0.124000
     19 C19         -0.7560     0.3820    -3.6840 ca         1 8OY      -0.119000
     20 C20         -0.1880    -0.2860    -4.7720 ca         1 8OY      -0.074600
     21 C21         -0.9270    -0.3830    -6.0450 c          1 8OY       0.880200
     22 O22         -0.4330    -0.9640    -6.9920 o          1 8OY      -0.835300
     23 O23         -2.1490     0.1750    -6.1600 o          1 8OY      -0.835300
     24 C24          1.0790    -0.8630    -4.6530 ca         1 8OY      -0.160000
     25 C25          1.7700    -0.7650    -3.4590 ca         1 8OY       0.129600
     26 N26          3.0420    -1.3370    -3.3370 nu         1 8OY      -0.696000
     27 C27          3.6810    -1.8640    -4.4610 ca         1 8OY       0.180600
     28 C28          3.6260    -1.1890    -5.6740 ca         1 8OY      -0.168000
     29 C29          4.2650    -1.7110    -6.7820 ca         1 8OY      -0.106000
     30 C30          4.9580    -2.9030    -6.6860 ca         1 8OY      -0.170000
     31 C31          5.0150    -3.5780    -5.4790 ca         1 8OY      -0.106000
     32 C32          4.3780    -3.0630    -4.3680 ca         1 8OY      -0.168000
     33 H061         5.8870    -0.0870     3.3330 hc         1 8OY       0.052200
     34 H062         5.8270     0.9270     1.8850 hc         1 8OY       0.052200
     35 H071         5.4900    -1.1450     0.5080 hc         1 8OY       0.073700
     36 H082         7.9510    -1.1540     2.2910 hc         1 8OY       0.039700
     37 H081         7.7440    -0.1830     0.8230 hc         1 8OY       0.039700
     38 H091         7.4790    -2.2520    -0.5040 hc         1 8OY       0.042950
     39 H092         9.0310    -2.2420     0.3530 hc         1 8OY       0.042950
     40 H101         7.9140    -4.4380     0.5630 hc         1 8OY       0.036700
     41 H102         8.0500    -3.6390     2.1390 hc         1 8OY       0.036700
     42 H112         5.7950    -4.5990     1.8260 hc         1 8OY       0.042950
     43 H111         5.5880    -3.6290     0.3570 hc         1 8OY       0.042950
     44 H122         6.0580    -2.5310     3.1510 hc         1 8OY       0.039700
     45 H121         4.5070    -2.5400     2.2930 hc         1 8OY       0.039700
     46 H131         3.9270     0.0000     4.5400 ha         1 8OY       0.133000
     47 H141         1.4420     0.0040     4.6290 ha         1 8OY       0.136000
     48 H151         0.1700     0.0060     2.4900 ha         1 8OY       0.166000
     49 H161         2.8830     0.1090    -1.1700 hn         1 8OY       0.325500
     50 H181        -0.5070     0.9900    -1.6520 ha         1 8OY       0.146000
     51 H191        -1.7380     0.8290    -3.7750 ha         1 8OY       0.160000
     52 H241         1.5210    -1.3800    -5.4960 ha         1 8OY       0.167000
     53 H261         3.4820    -1.3920    -2.4390 hn         1 8OY       0.430800
     54 H281         3.0840    -0.2550    -5.7510 ha         1 8OY       0.142000
     55 H291         4.2220    -1.1850    -7.7280 ha         1 8OY       0.123000
     56 H301         5.4580    -3.3100    -7.5570 ha         1 8OY       0.117000
     57 H311         5.5580    -4.5130    -5.4070 ha         1 8OY       0.123000
     58 H321         4.4230    -3.5920    -3.4230 ha         1 8OY       0.142000
@<TRIPOS>BOND
     1    11    10 1   
     2    11    12 1   
     3    10     9 1   
     4    12     7 1   
     5     9     8 1   
     6     7     8 1   
     7     7     6 1   
     8    29    30 ar  
     9    29    28 ar  
    10    30    31 ar  
    11    14    15 ar  
    12    14    13 ar  
    13    15     3 ar  
    14     1     2 2   
    15    13     5 ar  
    16    28    27 ar  
    17     3     2 1   
    18     3     4 ar  
    19     2    16 1   
    20     5     4 ar  
    21     5     6 1   
    22    18    19 ar  
    23    18    17 ar  
    24    16    17 1   
    25    19    20 ar  
    26    17    25 ar  
    27    31    32 ar  
    28    27    32 ar  
    29    27    26 1   
    30    20    21 1   
    31    20    24 ar  
    32    22    21 1   
    33    25    24 ar  
    34    25    26 1   
    35    21    23 1   
    36     6    33 1   
    37     6    34 1   
    38     7    35 1   
    39     8    36 1   
    40     8    37 1   
    41     9    38 1   
    42     9    39 1   
    43    10    40 1   
    44    10    41 1   
    45    11    42 1   
    46    11    43 1   
    47    12    44 1   
    48    12    45 1   
    49    13    46 1   
    50    14    47 1   
    51    15    48 1   
    52    16    49 1   
    53    18    50 1   
    54    19    51 1   
    55    24    52 1   
    56    26    53 1   
    57    28    54 1   
    58    29    55 1   
    59    30    56 1   
    60    31    57 1   
    61    32    58 1   
@<TRIPOS>SUBSTRUCTURE
     1 8OY         1 TEMP              0 ****  ****    0 ROOT
