@<TRIPOS>MOLECULE
molecule
   18    18     1     0     0
SMALL
bcc


@<TRIPOS>ATOM
      1 C4           0.0000     0.0000     0.0000 ca         1 8OZ      -0.157000
      2 C5           1.3840     0.0000     0.0000 ca         1 8OZ      -0.161000
      3 C6           2.0810     0.0000     1.1950 ca         1 8OZ      -0.157000
      4 C7           1.3980    -0.0010     2.3950 ca         1 8OZ      -0.101500
      5 C8          -1.5730    -1.1580     4.0570 c          1 8OZ       0.883800
      6 C           -0.6430     1.0530     4.5140 c2         1 8OZ      -0.235000
      7 O           -1.6640    -2.2150     3.2270 o          1 8OZ      -0.836800
      8 C2           0.0040     0.0000     2.4010 ca         1 8OZ       0.033200
      9 C3          -0.6920     0.0060     1.1930 ca         1 8OZ      -0.101500
     10 O1          -2.1770    -1.1580     5.1100 o          1 8OZ      -0.836800
     11 H1          -0.5410    -0.0020    -0.9390 ha         1 8OZ       0.107000
     12 H2           1.9240    -0.0000    -0.9390 ha         1 8OZ       0.100000
     13 H3           3.1640    -0.0010     1.1900 ha         1 8OZ       0.107000
     14 H4           2.1110    -0.0640     3.2080 ha         1 8OZ       0.129500
     15 H5          -0.0290     1.9030     4.2420 ha         1 8OZ       0.103000
     16 H6          -1.2160     1.0710     5.4330 ha         1 8OZ       0.103000
     17 H8          -1.7500     0.1160     0.9850 ha         1 8OZ       0.129500
     18 C1          -0.7360    -0.0000     3.6870 ce         1 8OZ      -0.108400
@<TRIPOS>BOND
     1    10     5 1
     2     7     5 1
     3     5    18 1
     4     9     1 ar
     5     9     8 ar
     6    18     8 1
     7    18     6 2
     8     1     2 ar
     9     8     4 ar
    10     2     3 ar
    11     4     3 ar
    12     1    11 1
    13     2    12 1
    14     3    13 1
    15     4    14 1
    16     6    15 1
    17     6    16 1
    18     9    17 1
@<TRIPOS>SUBSTRUCTURE
     1 8OZ         1 TEMP              0 ****  ****    0 ROOT
