@<TRIPOS>MOLECULE
molecule
   26    29     1     0     0
SMALL
bcc


@<TRIPOS>ATOM
      1 C01          0.0000     0.0000     0.0000 ca         1 8P0      -0.125000
      2 C02          1.3920     0.0000     0.0000 ca         1 8P0      -0.113000
      3 C03          2.1020     0.0000     1.1990 ca         1 8P0      -0.031500
      4 C04          3.4930    -0.0000     1.2360 ca         1 8P0      -0.115750
      5 C05          4.1630     0.0000     2.4650 ca         1 8P0      -0.115750
      6 C06          3.4400     0.0000     3.6540 ca         1 8P0      -0.031500
      7 C07          4.0620     0.0000     4.9000 ca         1 8P0      -0.113000
      8 C08          3.3090     0.0000     6.0710 ca         1 8P0      -0.125000
      9 C09          1.9170     0.0000     6.0700 ca         1 8P0      -0.113000
     10 C10          1.2060     0.0000     4.8720 ca         1 8P0      -0.031500
     11 C11          1.9670     0.0000     3.6090 ca         1 8P0      -0.015000
     12 C12          1.3420     0.0000     2.4620 ca         1 8P0      -0.015000
     13 C13         -0.1320     0.0000     2.4170 ca         1 8P0      -0.031500
     14 C14         -0.7540     0.0000     1.1700 ca         1 8P0      -0.113000
     15 C15         -0.8550    -0.0000     3.6060 ca         1 8P0      -0.115750
     16 C16         -0.1850     0.0000     4.8350 ca         1 8P0      -0.115750
     17 H011        -0.5190     0.0000    -0.9510 ha         1 8P0       0.127000
     18 H021         1.9280    -0.0000    -0.9410 ha         1 8P0       0.132000
     19 H041         4.0590    -0.0000     0.3120 ha         1 8P0       0.134000
     20 H051         5.2460    -0.0000     2.4910 ha         1 8P0       0.134000
     21 H071         5.1440     0.0000     4.9600 ha         1 8P0       0.132000
     22 H081         3.8270     0.0000     7.0220 ha         1 8P0       0.127000
     23 H091         1.3800     0.0000     7.0110 ha         1 8P0       0.132000
     24 H141        -1.8350    -0.0000     1.1110 ha         1 8P0       0.132000
     25 H151        -1.9380    -0.0000     3.5800 ha         1 8P0       0.134000
     26 H161        -0.7500     0.0000     5.7590 ha         1 8P0       0.134000
@<TRIPOS>BOND
     1     1    14 ar  
     2     1     2 ar  
     3    14    13 ar  
     4     2     3 ar  
     5    13    15 ar  
     6    13    12 ar  
     7     3    12 ar  
     8     3     4 ar  
     9    15    16 ar  
    10    12    11 ar  
    11     4     5 ar  
    12    16    10 ar  
    13    11    10 ar  
    14    11     6 ar  
    15     5     6 ar  
    16    10     9 ar  
    17     6     7 ar  
    18     9     8 ar  
    19     7     8 ar  
    20     1    17 1   
    21     2    18 1   
    22     4    19 1   
    23     5    20 1   
    24     7    21 1   
    25     8    22 1   
    26     9    23 1   
    27    14    24 1   
    28    15    25 1   
    29    16    26 1   
@<TRIPOS>SUBSTRUCTURE
     1 8P0         1 TEMP              0 ****  ****    0 ROOT
