@<TRIPOS>MOLECULE
molecule
   23    24     1     0     0
SMALL
bcc


@<TRIPOS>ATOM
      1 N1           0.0000     0.0000     0.0000 nv         1 8P1      -0.969200
      2 C4           4.1460     0.0000     0.0000 ca         1 8P1      -0.202600
      3 C5           3.4470     0.0000     1.2130 ca         1 8P1      -0.049000
      4 C6           2.0800    -0.0010     1.2100 ca         1 8P1      -0.187000
      5 C7           1.3890    -0.0010     0.0010 ca         1 8P1       0.208600
      6 C8           2.0830    -0.0020    -1.2050 ca         1 8P1      -0.183000
      7 C10          4.1740    -0.0120    -2.5340 c3         1 8P1      -0.042100
      8 C1           5.5930     0.5300    -2.3930 c3         1 8P1      -0.077400
      9 C2           6.3320    -0.2540    -1.3010 c3         1 8P1      -0.175400
     10 C3           5.6180     0.0110     0.0080 c          1 8P1       0.582700
     11 C9           3.4520    -0.0040    -1.2140 ca         1 8P1      -0.017300
     12 O1           6.2370     0.2230     1.0290 o          1 8P1      -0.533100
     13 H1          -0.5000    -0.7590    -0.4180 hn         1 8P1       0.431800
     14 H2          -0.5000     0.7490     0.4370 hn         1 8P1       0.431800
     15 H4           1.5370    -0.0680     2.1450 ha         1 8P1       0.138000
     16 H5           1.5370    -0.0020    -2.1410 ha         1 8P1       0.136000
     17 H6           4.2200    -1.0290    -2.9060 hc         1 8P1       0.055200
     18 H7           3.6290     0.6040    -3.2390 hc         1 8P1       0.055200
     19 H8           6.1170     0.4170    -3.3340 hc         1 8P1       0.050700
     20 H9           5.5530     1.5780    -2.1190 hc         1 8P1       0.050700
     21 H10          7.3500     0.1080    -1.2300 hc         1 8P1       0.071700
     22 H11          6.2810    -1.3120    -1.5270 hc         1 8P1       0.071700
     23 H3           3.9880     0.0000     2.1520 ha         1 8P1       0.151000
@<TRIPOS>BOND
     1     9     8 1   
     2     9    10 1   
     3    12    10 2   
     4     8     7 1   
     5    10     2 1   
     6     7    11 1   
     7     2     3 ar  
     8     2    11 ar  
     9     3     4 ar  
    10    11     6 ar  
    11     4     5 ar  
    12     6     5 ar  
    13     5     1 1   
    14     1    13 1   
    15     1    14 1   
    16     3    23 1   
    17     4    15 1   
    18     6    16 1   
    19     7    17 1   
    20     7    18 1   
    21     8    19 1   
    22     8    20 1   
    23     9    21 1   
    24     9    22 1   
@<TRIPOS>SUBSTRUCTURE
     1 8P1         1 TEMP              0 ****  ****    0 ROOT
