@<TRIPOS>MOLECULE
8P1
   23    24     1     0     0
SMALL
bcc


@<TRIPOS>ATOM
      1 N1           0.0000     0.0000     0.0000 nv         1 8P1      -0.520200
      2 C4           4.1460     0.0000     0.0000 ca         1 8P1      -0.211600
      3 C5           3.4470     0.0000     1.2130 ca         1 8P1      -0.011000
      4 C6           2.0800    -0.0010     1.2100 ca         1 8P1      -0.165000
      5 C7           1.3890    -0.0010     0.0010 ca         1 8P1       0.070600
      6 C8           2.0830    -0.0020    -1.2050 ca         1 8P1      -0.162000
      7 C10          4.1740    -0.0120    -2.5340 c3         1 8P1       0.025900
      8 C1           5.5930     0.5300    -2.3930 c3         1 8P1      -0.018400
      9 C2           6.3320    -0.2540    -1.3010 c3         1 8P1      -0.118400
     10 C3           5.6180     0.0110     0.0080 c          1 8P1       0.634700
     11 C9           3.4520    -0.0040    -1.2140 ca         1 8P1      -0.015300
     12 O1           6.2370     0.2230     1.0290 o          1 8P1      -0.565100
     13 H1          -0.5000    -0.7590    -0.4180 hn         1 8P1       0.273300
     14 H2          -0.5000     0.7490     0.4370 hn         1 8P1       0.273300
     15 H4           1.5370    -0.0680     2.1450 ha         1 8P1       0.113000
     16 H5           1.5370    -0.0020    -2.1410 ha         1 8P1       0.113000
     17 H6           4.2200    -1.0290    -2.9060 hc         1 8P1       0.023700
     18 H7           3.6290     0.6040    -3.2390 hc         1 8P1       0.023700
     19 H8           6.1170     0.4170    -3.3340 hc         1 8P1       0.019700
     20 H9           5.5530     1.5780    -2.1190 hc         1 8P1       0.019700
     21 H10          7.3500     0.1080    -1.2300 hc         1 8P1       0.039700
     22 H11          6.2810    -1.3120    -1.5270 hc         1 8P1       0.039700
     23 H3           3.9880     0.0000     2.1520 ha         1 8P1       0.120000
@<TRIPOS>BOND
     1     1     5 1   
     2     1    13 1   
     3     1    14 1   
     4     2     3 ar  
     5     2    10 1   
     6     2    11 ar  
     7     3     4 ar  
     8     3    23 1   
     9     4     5 ar  
    10     4    15 1   
    11     5     6 ar  
    12     6    11 ar  
    13     6    16 1   
    14     7     8 1   
    15     7    11 1   
    16     7    17 1   
    17     7    18 1   
    18     8     9 1   
    19     8    19 1   
    20     8    20 1   
    21     9    10 1   
    22     9    21 1   
    23     9    22 1   
    24    10    12 2   
@<TRIPOS>SUBSTRUCTURE
     1 8P1         1 TEMP              0 ****  ****    0 ROOT
