@<TRIPOS>MOLECULE
8P2
   24    25     1     0     0
SMALL
bcc


@<TRIPOS>ATOM
      1 N1           0.2240    -0.9050    -2.4890 n1         1 8P2       0.410500
      2 OAE          0.0000     0.0000     0.0000 oh         1 8P2      -0.635800
      3 CAC          1.4290     0.0000     0.0000 c3         1 8P2       0.159100
      4 CAK          1.9160     0.0000     1.4310 c3         1 8P2       0.168100
      5 OAF          1.3390     1.1150     2.1140 oh         1 8P2      -0.578800
      6 CAJ          3.4230     0.0900     1.5410 c3         1 8P2       0.184100
      7 OAG          3.8110    -0.2140     2.8820 oh         1 8P2      -0.567800
      8 CAB          4.1280    -0.8720     0.5950 cx         1 8P2       0.128100
      9 OAI          4.3390    -0.3990    -0.7450 op         1 8P2      -0.373600
     10 CAA          3.4010    -1.4470    -0.6100 cx         1 8P2       0.071100
     11 CAD          1.9160    -1.1980    -0.7870 c3         1 8P2      -0.041700
     12 CAH          1.6360    -0.9600    -2.2730 c3         1 8P2       0.163100
     13 H4          -0.3140     0.8880     0.0390 ho         1 8P2       0.438000
     14 H5           1.7830     0.9010    -0.4860 h1         1 8P2       0.028700
     15 H6           1.5880    -0.9150     1.9090 h1         1 8P2       0.035700
     16 H7           0.9070     0.8140     2.8970 ho         1 8P2       0.422000
     17 H8           3.7310     1.1010     1.3020 h1         1 8P2       0.038700
     18 H9           4.4810     0.3880     3.1600 ho         1 8P2       0.415000
     19 H10          4.9450    -1.4700     0.9800 h1         1 8P2       0.088700
     20 H11          3.7740    -2.4150    -0.9220 h1         1 8P2       0.079700
     21 H12          1.3730    -2.0760    -0.4590 hc         1 8P2       0.069700
     22 H13          2.0850    -0.0230    -2.5790 h1         1 8P2       0.101200
     23 H14          2.0590    -1.7700    -2.8540 h1         1 8P2       0.101200
     24 N2          -0.8000    -0.8640    -2.6280 n1         1 8P2       0.096000
@<TRIPOS>BOND
     1     1    12 1   
     2     1    24 3   
     3     2     3 1   
     4     2    13 1   
     5     3     4 1   
     6     3    11 1   
     7     3    14 1   
     8     4     5 1   
     9     4     6 1   
    10     4    15 1   
    11     5    16 1   
    12     6     7 1   
    13     6     8 1   
    14     6    17 1   
    15     7    18 1   
    16     8     9 1   
    17     8    10 1   
    18     8    19 1   
    19     9    10 1   
    20    10    11 1   
    21    10    20 1   
    22    11    12 1   
    23    11    21 1   
    24    12    22 1   
    25    12    23 1   
@<TRIPOS>SUBSTRUCTURE
     1 8P2         1 TEMP              0 ****  ****    0 ROOT
