@<TRIPOS>MOLECULE
molecule
   24    25     1     0     0
SMALL
bcc


@<TRIPOS>ATOM
      1 N1           0.2240    -0.9050    -2.4890 n1         1 8P2      -0.022500
      2 OAE          0.0000     0.0000     0.0000 oh         1 8P2      -0.643800
      3 CAC          1.4290     0.0000     0.0000 c3         1 8P2       0.124100
      4 CAK          1.9160     0.0000     1.4310 c3         1 8P2       0.136100
      5 OAF          1.3390     1.1150     2.1140 oh         1 8P2      -0.594800
      6 CAJ          3.4230     0.0900     1.5410 c3         1 8P2       0.145100
      7 OAG          3.8110    -0.2140     2.8820 oh         1 8P2      -0.582800
      8 CAB          4.1280    -0.8720     0.5950 cx         1 8P2       0.079100
      9 OAI          4.3390    -0.3990    -0.7450 op         1 8P2      -0.365600
     10 CAA          3.4010    -1.4470    -0.6100 cx         1 8P2       0.019100
     11 CAD          1.9160    -1.1980    -0.7870 c3         1 8P2      -0.061700
     12 CAH          1.6360    -0.9600    -2.2730 c3         1 8P2       0.213100
     13 H4          -0.3140     0.8880     0.0390 ho         1 8P2       0.446000
     14 H5           1.7830     0.9010    -0.4860 h1         1 8P2       0.061700
     15 H6           1.5880    -0.9150     1.9090 h1         1 8P2       0.073700
     16 H7           0.9070     0.8140     2.8970 ho         1 8P2       0.436000
     17 H8           3.7310     1.1010     1.3020 h1         1 8P2       0.079700
     18 H9           4.4810     0.3880     3.1600 ho         1 8P2       0.431000
     19 H10          4.9450    -1.4700     0.9800 h1         1 8P2       0.133700
     20 H11          3.7740    -2.4150    -0.9220 h1         1 8P2       0.119700
     21 H12          1.3730    -2.0760    -0.4590 hc         1 8P2       0.107700
     22 H13          2.0850    -0.0230    -2.5790 h1         1 8P2       0.149700
     23 H14          2.0590    -1.7700    -2.8540 h1         1 8P2       0.149700
     24 N2          -0.8000    -0.8640    -2.6280 n1         1 8P2       0.366000
@<TRIPOS>BOND
     1     2     3 1   
     2     5     4 1   
     3     3     4 1   
     4     3    11 1   
     5    12     1 1   
     6    12    11 1   
     7     4     6 1   
     8    11    10 1   
     9     6     7 1   
    10     6     8 1   
    11    10     9 1   
    12    10     8 1   
    13     9     8 1   
    14     2    13 1   
    15     3    14 1   
    16     4    15 1   
    17     5    16 1   
    18     6    17 1   
    19     7    18 1   
    20     8    19 1   
    21    10    20 1   
    22    11    21 1   
    23    12    22 1   
    24    12    23 1   
    25     1    24 3   
@<TRIPOS>SUBSTRUCTURE
     1 8P2         1 TEMP              0 ****  ****    0 ROOT
