@<TRIPOS>MOLECULE
molecule
   32    34     1     0     0
SMALL
bcc


@<TRIPOS>ATOM
      1 C1           0.0000     0.0000     0.0000 ca         1 8P3      -0.174000
      2 C2           1.3830     0.0000     0.0000 ca         1 8P3      -0.102000
      3 C3           2.0800     0.0000     1.1910 ca         1 8P3      -0.145000
      4 C4           1.3940     0.0020     2.4030 ca         1 8P3       0.079600
      5 C5           0.0050     0.0030     2.3900 ca         1 8P3      -0.163300
      6 C6          -0.6890     0.0080     1.2000 ca         1 8P3      -0.087000
      7 C7          -0.4350     0.0040     3.8350 c3         1 8P3      -0.128100
      8 C8           0.8630     0.0040     4.6150 c          1 8P3       0.707500
      9 O9           0.9780     0.0050     5.8220 o          1 8P3      -0.608500
     10 N10          1.8630     0.0020     3.7180 n          1 8P3      -0.364000
     11 C11          3.2840     0.0010     4.0770 c3         1 8P3       0.160300
     12 C12          3.7990     1.4170     4.0930 ca         1 8P3      -0.087300
     13 C13          5.1470     1.6680     4.3550 ca         1 8P3      -0.101600
     14 C14          5.6160     2.9830     4.3670 ca         1 8P3      -0.090000
     15 C15          4.7470     4.0250     4.1210 ca         1 8P3      -0.164000
     16 C16          3.4110     3.7690     3.8630 ca         1 8P3      -0.149000
     17 C17          2.9410     2.4680     3.8430 ca         1 8P3      -0.148000
     18 C18          6.0730     0.5480     4.6180 c          1 8P3       0.883200
     19 O19          5.6870    -0.5980     4.5040 o          1 8P3      -0.838300
     20 O20          7.3450     0.7960     4.9860 o          1 8P3      -0.838300
     21 H1          -0.5430     0.0000    -0.9370 ha         1 8P3       0.120000
     22 H2           1.9210    -0.0060    -0.9400 ha         1 8P3       0.127000
     23 H3           3.1640    -0.0000     1.1820 ha         1 8P3       0.153000
     24 H6          -1.7720     0.0080     1.2030 ha         1 8P3       0.119000
     25 H7          -1.0090    -0.8870     4.0570 hc         1 8P3       0.078200
     26 H7A         -1.0070     0.8970     4.0550 hc         1 8P3       0.078200
     27 H11          3.8400    -0.5770     3.3490 h1         1 8P3       0.104700
     28 H11A         3.4080    -0.4390     5.0590 h1         1 8P3       0.104700
     29 H14          6.6610     3.1850     4.5690 ha         1 8P3       0.154000
     30 H15          5.1090     5.0460     4.1330 ha         1 8P3       0.105000
     31 H16          2.7330     4.5910     3.6680 ha         1 8P3       0.102000
     32 H17          1.8940     2.2740     3.6400 ha         1 8P3       0.113000
@<TRIPOS>BOND
     1     6     1 ar  
     2     1     2 ar  
     3     1    21 1   
     4     3     2 ar  
     5     2    22 1   
     6     4     3 ar  
     7     3    23 1   
     8     5     4 ar  
     9    10     4 1   
    10     7     5 1   
    11     5     6 ar  
    12     6    24 1   
    13     8     7 1   
    14     7    25 1   
    15     7    26 1   
    16     9     8 2   
    17     8    10 1   
    18    10    11 1   
    19    12    11 1   
    20    11    27 1   
    21    11    28 1   
    22    17    12 ar  
    23    12    13 ar  
    24    14    13 ar  
    25    13    18 1   
    26    15    14 ar  
    27    14    29 1   
    28    16    15 ar  
    29    15    30 1   
    30    16    17 ar  
    31    16    31 1   
    32    17    32 1   
    33    18    19 1   
    34    18    20 1   
@<TRIPOS>SUBSTRUCTURE
     1 8P3         1 TEMP              0 ****  ****    0 ROOT
