@<TRIPOS>MOLECULE
8P3
   32    34     1     0     0
SMALL
bcc


@<TRIPOS>ATOM
      1 C1           0.0000     0.0000     0.0000 ca         1 8P3      -0.150000
      2 C2           1.3830     0.0000     0.0000 ca         1 8P3      -0.076000
      3 C3           2.0800     0.0000     1.1910 ca         1 8P3      -0.112000
      4 C4           1.3940     0.0020     2.4030 ca         1 8P3      -0.056400
      5 C5           0.0050     0.0030     2.3900 ca         1 8P3      -0.171300
      6 C6          -0.6890     0.0080     1.2000 ca         1 8P3      -0.053000
      7 C7          -0.4350     0.0040     3.8350 c3         1 8P3      -0.055100
      8 C8           0.8630     0.0040     4.6150 c          1 8P3       0.618500
      9 O9           0.9780     0.0050     5.8220 o          1 8P3      -0.651500
     10 N10          1.8630     0.0020     3.7180 n          1 8P3       0.031000
     11 C11          3.2840     0.0010     4.0770 c3         1 8P3       0.082300
     12 C12          3.7990     1.4170     4.0930 ca         1 8P3      -0.083300
     13 C13          5.1470     1.6680     4.3550 ca         1 8P3      -0.099600
     14 C14          5.6160     2.9830     4.3670 ca         1 8P3      -0.058000
     15 C15          4.7470     4.0250     4.1210 ca         1 8P3      -0.146000
     16 C16          3.4110     3.7690     3.8630 ca         1 8P3      -0.121000
     17 C17          2.9410     2.4680     3.8430 ca         1 8P3      -0.148000
     18 C18          6.0730     0.5480     4.6180 c          1 8P3       0.978200
     19 O19          5.6870    -0.5980     4.5040 o          1 8P3      -0.885800
     20 O20          7.3450     0.7960     4.9860 o          1 8P3      -0.885800
     21 H1          -0.5430     0.0000    -0.9370 ha         1 8P3       0.096000
     22 H2           1.9210    -0.0060    -0.9400 ha         1 8P3       0.097000
     23 H3           3.1640    -0.0000     1.1820 ha         1 8P3       0.127000
     24 H6          -1.7720     0.0080     1.2030 ha         1 8P3       0.093000
     25 H7          -1.0090    -0.8870     4.0570 hc         1 8P3       0.043200
     26 H7A         -1.0070     0.8970     4.0550 hc         1 8P3       0.043200
     27 H11          3.8400    -0.5770     3.3490 h1         1 8P3       0.078200
     28 H11A         3.4080    -0.4390     5.0590 h1         1 8P3       0.078200
     29 H14          6.6610     3.1850     4.5690 ha         1 8P3       0.128000
     30 H15          5.1090     5.0460     4.1330 ha         1 8P3       0.084000
     31 H16          2.7330     4.5910     3.6680 ha         1 8P3       0.081000
     32 H17          1.8940     2.2740     3.6400 ha         1 8P3       0.095000
@<TRIPOS>BOND
     1     1     2 ar  
     2     1     6 ar  
     3     1    21 1   
     4     2     3 ar  
     5     2    22 1   
     6     3     4 ar  
     7     3    23 1   
     8     4     5 ar  
     9     4    10 1   
    10     5     6 ar  
    11     5     7 1   
    12     6    24 1   
    13     7     8 1   
    14     7    25 1   
    15     7    26 1   
    16     8     9 2   
    17     8    10 1   
    18    10    11 1   
    19    11    12 1   
    20    11    27 1   
    21    11    28 1   
    22    12    13 ar  
    23    12    17 ar  
    24    13    14 ar  
    25    13    18 1   
    26    14    15 ar  
    27    14    29 1   
    28    15    16 ar  
    29    15    30 1   
    30    16    17 ar  
    31    16    31 1   
    32    17    32 1   
    33    18    19 1   
    34    18    20 1   
@<TRIPOS>SUBSTRUCTURE
     1 8P3         1 TEMP              0 ****  ****    0 ROOT
