@<TRIPOS>MOLECULE
molecule
   19    19     1     0     0
SMALL
bcc


@<TRIPOS>ATOM
      1 N1           0.0000     0.0000     0.0000 ns         1 8P4      -0.328100
      2 C4           3.6780     0.0000     0.0000 ca         1 8P4      -0.152000
      3 C5           2.3730     0.0000     0.4530 ca         1 8P4      -0.070000
      4 C6           1.3240     0.0020    -0.4570 ca         1 8P4      -0.050400
      5 C7          -0.3540     0.7770     1.0440 cs         1 8P4       0.242400
      6 C1           1.5880     0.0050    -1.8200 ca         1 8P4      -0.070000
      7 C2           2.8950     0.0060    -2.2680 ca         1 8P4      -0.152000
      8 C3           3.9400     0.0030    -1.3600 ca         1 8P4       0.189900
      9 N2          -1.5980     0.6930     1.5540 nz         1 8P4      -0.610400
     10 S1           0.7780     1.8680     1.7200 s          1 8P4      -0.298400
     11 F1           5.2170     0.0100    -1.8000 f          1 8P4      -0.105900
     12 H1          -0.6940    -0.5390    -0.4800 hn         1 8P4       0.336500
     13 H2           4.4970    -0.0020     0.7090 ha         1 8P4       0.175000
     14 H3           2.1680    -0.0030     1.5160 ha         1 8P4       0.151000
     15 H4           0.7710     0.0080    -2.5310 ha         1 8P4       0.151000
     16 H5           3.1030     0.0090    -3.3320 ha         1 8P4       0.175000
     17 H6          -2.2640     0.9470     0.8520 hn         1 8P4       0.471467
     18 H7          -1.7720    -0.2450     1.8560 hn         1 8P4       0.471467
     19 H23         -1.6810     1.3150     2.3330 hn         1 8P4       0.471467
@<TRIPOS>BOND
     1    10     5 2   
     2     9     5 1   
     3     5     1 1   
     4     1     4 1   
     5     3     4 ar  
     6     3     2 ar  
     7     4     6 ar  
     8     2     8 ar  
     9     6     7 ar  
    10     8     7 ar  
    11     8    11 1   
    12     1    12 1   
    13     2    13 1   
    14     3    14 1   
    15     6    15 1   
    16     7    16 1   
    17     9    17 1   
    18     9    18 1   
    19    19     9 1   
@<TRIPOS>SUBSTRUCTURE
     1 8P4         1 TEMP              0 ****  ****    0 ROOT
