@<TRIPOS>MOLECULE
8P5
   45    46     1     0     0
SMALL
bcc


@<TRIPOS>ATOM
      1 O3           0.0000     0.0000     0.0000 oh         1 8P5      -0.576800
      2 C4           1.9170     1.1970    -0.7860 c3         1 8P5       0.184100
      3 C5           3.4240     1.2350    -0.9240 c3         1 8P5      -0.055700
      4 O4           1.3360     1.1590    -2.0910 oh         1 8P5      -0.551800
      5 C6           3.8370     2.6110    -1.4490 c3         1 8P5       0.234400
      6 N1           7.3070     7.7900     9.1560 n2         1 8P5      -0.412400
      7 C7           4.1360     0.9800     0.3890 cx         1 8P5      -0.037700
      8 C8           3.7850     1.7930     1.6250 cx         1 8P5      -0.237700
      9 C9           4.9110     2.1700     2.5550 c          1 8P5       0.621100
     10 O6           3.3250     2.7900    -2.7710 oh         1 8P5      -0.567800
     11 C12          5.7490     3.2550     4.5690 c3         1 8P5       0.059000
     12 C13          5.1930     4.0640     5.7420 c3         1 8P5      -0.032400
     13 C14          6.3350     4.4450     6.6860 c3         1 8P5      -0.039400
     14 C15          5.7790     5.2540     7.8590 c3         1 8P5       0.239800
     15 O10          6.0450     1.8230     2.3040 o          1 8P5      -0.633100
     16 N11          4.6550     2.8900     3.6650 ns         1 8P5      -0.209900
     17 N16          6.8730     5.6190     8.7630 n2         1 8P5      -0.340200
     18 N17          7.0970     6.7020     8.9650 n1         1 8P5       0.828000
     19 C1           3.4030     0.3070     1.5370 cx         1 8P5      -0.089700
     20 C2           1.9160     0.0000     1.4340 c3         1 8P5       0.211100
     21 O2           1.6690    -1.2850     2.0070 oh         1 8P5      -0.579800
     22 C3           1.4290     0.0000     0.0000 c3         1 8P5       0.139100
     23 H1          -0.3140    -0.8500    -0.2610 ho         1 8P5       0.401000
     24 H2           1.5930     2.0990    -0.2800 h1         1 8P5       0.035700
     25 H3           3.7270     0.4770    -1.6370 hc         1 8P5       0.054700
     26 H4           1.1900     0.2620    -2.3440 ho         1 8P5       0.386000
     27 H5           4.9180     2.6810    -1.4680 h1         1 8P5      -0.015800
     28 H6           3.4370     3.3800    -0.8000 h1         1 8P5      -0.015800
     29 H8           5.1840     0.7120     0.3260 hc         1 8P5       0.084700
     30 H9           2.9600     2.4830     1.4960 hc         1 8P5       0.076700
     31 H10          3.7750     3.5060    -3.1880 ho         1 8P5       0.385000
     32 H11          6.2240     2.3550     4.9430 h1         1 8P5       0.031200
     33 H12          6.4780     3.8500     4.0320 h1         1 8P5       0.031200
     34 H13          4.4650     3.4680     6.2790 hc         1 8P5       0.024200
     35 H14          4.7190     4.9630     5.3680 hc         1 8P5       0.024200
     36 H15          6.8090     3.5460     7.0600 hc         1 8P5       0.042700
     37 H16          7.0630     5.0410     6.1490 hc         1 8P5       0.042700
     38 H17          5.3050     6.1540     7.4850 h1         1 8P5       0.042700
     39 H18          5.0510     4.6590     8.3960 h1         1 8P5       0.042700
     40 H19          3.7240     3.2000     3.8570 hn         1 8P5       0.177500
     41 H20          4.0120    -0.3370     2.1600 hc         1 8P5       0.078700
     42 H21          1.3660     0.7490     1.9890 h1         1 8P5       0.010700
     43 H22          1.2670    -1.1790     2.8540 ho         1 8P5       0.393000
     44 H23          1.7820    -0.9010    -0.4860 h1         1 8P5       0.020700
     45 H24          6.7500     8.4920     8.7100 hn         1 8P5       0.494400
@<TRIPOS>BOND
     1     1    22 1   
     2     1    23 1   
     3     2     3 1   
     4     2     4 1   
     5     2    22 1   
     6     2    24 1   
     7     3     5 1   
     8     3     7 1   
     9     3    25 1   
    10     4    26 1   
    11     5    10 1   
    12     5    27 1   
    13     5    28 1   
    14     6    18 2   
    15     6    45 1   
    16     7     8 1   
    17     7    19 1   
    18     7    29 1   
    19     8     9 1   
    20     8    19 1   
    21     8    30 1   
    22     9    15 2   
    23     9    16 1   
    24    10    31 1   
    25    11    12 1   
    26    11    16 1   
    27    11    32 1   
    28    11    33 1   
    29    12    13 1   
    30    12    34 1   
    31    12    35 1   
    32    13    14 1   
    33    13    36 1   
    34    13    37 1   
    35    14    17 1   
    36    14    38 1   
    37    14    39 1   
    38    16    40 1   
    39    17    18 2   
    40    19    20 1   
    41    19    41 1   
    42    20    21 1   
    43    20    22 1   
    44    20    42 1   
    45    21    43 1   
    46    22    44 1   
@<TRIPOS>SUBSTRUCTURE
     1 8P5         1 TEMP              0 ****  ****    0 ROOT
