@<TRIPOS>MOLECULE
molecule
   45    46     1     0     0
SMALL
bcc


@<TRIPOS>ATOM
      1 O3           0.0000     0.0000     0.0000 oh         1 8P5      -0.610800
      2 C4           1.9170     1.1970    -0.7860 c3         1 8P5       0.157100
      3 C5           3.4240     1.2350    -0.9240 c3         1 8P5      -0.045700
      4 O4           1.3360     1.1590    -2.0910 oh         1 8P5      -0.575800
      5 C6           3.8370     2.6110    -1.4490 c3         1 8P5       0.149400
      6 N1           7.3360     7.7790     9.1790 n2         1 8P5      -0.419400
      7 C7           4.1360     0.9800     0.3890 cx         1 8P5      -0.064700
      8 C8           3.7850     1.7930     1.6250 cx         1 8P5      -0.254700
      9 C9           4.9110     2.1700     2.5550 c          1 8P5       0.698100
     10 O6           3.3250     2.7900    -2.7710 oh         1 8P5      -0.588800
     11 C12          5.7490     3.2550     4.5690 c3         1 8P5       0.123000
     12 C13          5.1930     4.0640     5.7420 c3         1 8P5      -0.098400
     13 C14          6.3350     4.4450     6.6860 c3         1 8P5      -0.098400
     14 C15          5.7790     5.2540     7.8590 c3         1 8P5       0.210800
     15 O10          6.0450     1.8230     2.3040 o          1 8P5      -0.593100
     16 N11          4.6550     2.8900     3.6650 ns         1 8P5      -0.593900
     17 N16          6.8730     5.6190     8.7630 n2         1 8P5      -0.240200
     18 N17          7.0970     6.7020     8.9650 n1         1 8P5       0.454000
     19 C1           3.4030     0.3070     1.5370 cx         1 8P5      -0.105700
     20 C2           1.9160     0.0000     1.4340 c3         1 8P5       0.166100
     21 O2           1.6690    -1.2850     2.0070 oh         1 8P5      -0.594800
     22 C3           1.4290     0.0000     0.0000 c3         1 8P5       0.119100
     23 H1          -0.3140    -0.8260    -0.3290 ho         1 8P5       0.421000
     24 H2           1.5930     2.0990    -0.2800 h1         1 8P5       0.028700
     25 H3           3.7270     0.4770    -1.6370 hc         1 8P5       0.098700
     26 H4           0.5390     1.6630    -2.0950 ho         1 8P5       0.413000
     27 H5           3.4370     3.3800    -0.8000 h1         1 8P5       0.020700
     28 H6           4.9180     2.6810    -1.4680 h1         1 8P5       0.020700
     29 H8           5.1840     0.7120     0.3260 hc         1 8P5       0.113700
     30 H9           2.9600     2.4830     1.4960 hc         1 8P5       0.092700
     31 H10          3.8090     3.4730    -3.2050 ho         1 8P5       0.401000
     32 H11          6.4780     3.8500     4.0320 h1         1 8P5       0.062700
     33 H12          6.2240     2.3550     4.9430 h1         1 8P5       0.062700
     34 H13          4.7190     4.9630     5.3680 hc         1 8P5       0.057700
     35 H14          4.4650     3.4680     6.2790 hc         1 8P5       0.057700
     36 H15          7.0630     5.0410     6.1490 hc         1 8P5       0.084200
     37 H16          6.8090     3.5460     7.0600 hc         1 8P5       0.084200
     38 H17          5.0510     4.6590     8.3960 h1         1 8P5       0.102700
     39 H18          5.3050     6.1540     7.4850 h1         1 8P5       0.102700
     40 H19          3.7240     3.2000     3.8570 hn         1 8P5       0.316500
     41 H20          4.0120    -0.3370     2.1600 hc         1 8P5       0.107700
     42 H21          1.3660     0.7490     1.9890 h1         1 8P5       0.041700
     43 H22          1.2600    -1.1800     2.8500 ho         1 8P5       0.406000
     44 H23          1.7820    -0.9010    -0.4860 h1         1 8P5       0.069700
     45 H24          6.7980     8.5060     8.7500 hn         1 8P5       0.638400
@<TRIPOS>BOND
     1     6    18 2   
     2    18    17 2   
     3    17    14 1   
     4    14    13 1   
     5    13    12 1   
     6    12    11 1   
     7    15     9 2   
     8    11    16 1   
     9     9    16 1   
    10     9     8 1   
    11     8     7 1   
    12     8    19 1   
    13     5    10 1   
    14     5     3 1   
    15     7    19 1   
    16     7     3 1   
    17    19    20 1   
    18     3     2 1   
    19     2     4 1   
    20     2    22 1   
    21    20    22 1   
    22    20    21 1   
    23    22     1 1   
    24     1    23 1   
    25     2    24 1   
    26     3    25 1   
    27     4    26 1   
    28     5    27 1   
    29     5    28 1   
    30     7    29 1   
    31     8    30 1   
    32    10    31 1   
    33    11    32 1   
    34    11    33 1   
    35    12    34 1   
    36    12    35 1   
    37    13    36 1   
    38    13    37 1   
    39    14    38 1   
    40    14    39 1   
    41    16    40 1   
    42    19    41 1   
    43    20    42 1   
    44    21    43 1   
    45    22    44 1   
    46     6    45 1   
@<TRIPOS>SUBSTRUCTURE
     1 8P5         1 TEMP              0 ****  ****    0 ROOT
