@<TRIPOS>MOLECULE
molecule
   18    19     1     0     0
SMALL
bcc


@<TRIPOS>ATOM
      1 N1           0.0000     0.0000     0.0000 na         1 8P7      -0.266300
      2 C4          -1.6480     0.0070     1.9450 ca         1 8P7      -0.128000
      3 C5          -1.7170     0.0080     3.3220 ca         1 8P7      -0.115000
      4 C6          -0.5560     0.0060     4.0840 ca         1 8P7      -0.146000
      5 C7           0.6710     0.0040     3.4840 ca         1 8P7      -0.070000
      6 C8           0.7640     0.0030     2.0900 ca         1 8P7       0.093400
      7 C2           1.3600     0.0000     0.0000 cc         1 8P7       0.419800
      8 C3          -0.4100     0.0050     1.3190 ca         1 8P7      -0.095200
      9 N2           1.8080     0.0000     1.2210 nd         1 8P7      -0.603100
     10 H1          -0.5880    -0.1340    -0.7980 hn         1 8P7       0.300700
     11 H2          -2.5560     0.0090     1.3550 ha         1 8P7       0.125000
     12 H3          -2.6820     0.0100     3.8130 ha         1 8P7       0.132000
     13 H4          -0.6240     0.0070     5.1650 ha         1 8P7       0.132000
     14 H5           1.5710     0.0020     4.0870 ha         1 8P7       0.142000
     15 H6           3.2660     0.0630    -0.9480 hc         1 8P7       0.058700
     16 H7           1.9690     0.8550    -1.8530 hc         1 8P7       0.058700
     17 H8           2.0560    -0.9110    -1.7950 hc         1 8P7       0.058700
     18 C1           2.2240     0.0020    -1.2360 c3         1 8P7      -0.097400
@<TRIPOS>BOND
     1     5     6 ar  
     2     5     4 ar  
     3     9     6 1   
     4     9     7 2   
     5     6     8 ar  
     6     4     3 ar  
     7    18     7 1   
     8     7     1 1   
     9     8     1 1   
    10     8     2 ar  
    11     3     2 ar  
    12     1    10 1   
    13     2    11 1   
    14     3    12 1   
    15     4    13 1   
    16     5    14 1   
    17    18    15 1   
    18    18    16 1   
    19    18    17 1   
@<TRIPOS>SUBSTRUCTURE
     1 8P7         1 TEMP              0 ****  ****    0 ROOT
