@<TRIPOS>MOLECULE
molecule
   59    61     1     0     0
SMALL
bcc


@<TRIPOS>ATOM
      1 C1I          0.0000     0.0000     0.0000 ca         1 8PA      -0.103000
      2 C1G          1.3840     0.0000     0.0000 ca         1 8PA      -0.258300
      3 C1H          2.0600     0.0000     1.2070 ca         1 8PA       0.402200
      4 N1K          1.4080     0.0010     2.3530 nb         1 8PA      -0.680000
      5 C1J          0.0920     0.0020     2.4040 ca         1 8PA       0.426200
      6 C1N         -0.6640     0.0010     1.2310 ca         1 8PA      -0.162100
      7 C1F         -2.1410     0.0080     1.2890 ce         1 8PA      -0.162200
      8 C1E         -2.7580     0.0090     2.4620 c2         1 8PA      -0.149200
      9 C1M         -4.2590     0.1390     2.5230 c3         1 8PA       0.282600
     10 O1D         -4.6040     1.3690     3.1630 oh         1 8PA      -0.595800
     11 C1Q         -4.8310    -1.0130     3.3080 cc         1 8PA      -0.261700
     12 S1          -4.7740    -1.1620     5.0110 ss         1 8PA      -0.046800
     13 C5          -5.6310    -2.6990     4.9140 cd         1 8PA      -0.084400
     14 C6          -6.0200    -3.5720     6.0780 c3         1 8PA      -0.007100
     15 C7          -4.8920    -4.5640     6.3710 c3         1 8PA       0.235400
     16 O7          -5.2610    -5.3920     7.4760 os         1 8PA      -0.608200
     17 P1A         -4.3080    -6.5520     8.0580 p5         1 8PA       1.428800
     18 O2A         -4.1170    -7.6990     6.9430 o          1 8PA      -0.839000
     19 O1A         -2.9890    -5.9790     8.4070 o          1 8PA      -0.839000
     20 O3A         -4.9820    -7.1900     9.3740 os         1 8PA      -0.709800
     21 P1B         -4.4180    -8.0450    10.6160 p5         1 8PA       1.292900
     22 O2B         -3.1610    -7.4350    11.1050 o          1 8PA      -0.642167
     23 O1B         -5.5090    -8.0520    11.8010 o          1 8PA      -0.642167
     24 O3B         -4.1310    -9.5570    10.1410 o          1 8PA      -0.642167
     25 C4          -5.8760    -2.9520     3.6250 cc         1 8PA      -0.075600
     26 C4M         -6.5990    -4.1910     3.1610 c3         1 8PA      -0.034800
     27 N3          -5.4390    -2.0280     2.7940 na         1 8PA       0.032900
     28 C7S         -5.6320    -2.1490     1.3460 c3         1 8PA       0.082600
     29 C5S         -6.8760    -1.4020     0.9410 ca         1 8PA      -0.390900
     30 C6S         -8.1130    -1.7660     1.4370 ca         1 8PA       0.493200
     31 N1S         -9.1870    -1.0870     1.0580 nb         1 8PA      -0.755000
     32 C2S         -9.0890    -0.0750     0.2200 ca         1 8PA       0.700300
     33 C2M        -10.3380     0.6670    -0.1820 c3         1 8PA      -0.120400
     34 N3S         -7.9300     0.3070    -0.2770 nb         1 8PA      -0.788000
     35 C4S         -6.8080    -0.3220     0.0590 ca         1 8PA       0.722200
     36 N4S         -5.5910     0.0820    -0.4660 nv         1 8PA      -1.052500
     37 H1I         -0.5550    -0.0000    -0.9300 ha         1 8PA       0.127000
     38 H1G          1.9310    -0.0010    -0.9350 ha         1 8PA       0.125000
     39 H1H          3.1430    -0.0000     1.2100 h4         1 8PA       0.013100
     40 H1J         -0.4080     0.0030     3.3650 h4         1 8PA       0.039100
     41 H1F         -2.7160     0.1000     0.3760 ha         1 8PA       0.110000
     42 H1E         -2.1790     0.0050     3.3780 ha         1 8PA       0.149000
     43 H6          -6.9250    -4.1150     5.8360 hc         1 8PA       0.054700
     44 H6A         -6.1920    -2.9540     6.9510 hc         1 8PA       0.054700
     45 H7          -4.7190    -5.1820     5.4980 h1         1 8PA       0.028200
     46 H7A         -3.9860    -4.0200     6.6130 h1         1 8PA       0.028200
     47 H4M         -5.9060    -5.0230     3.1320 hc         1 8PA       0.055367
     48 H4MA        -7.4060    -4.4170     3.8470 hc         1 8PA       0.055367
     49 H4MB        -7.0040    -4.0230     2.1700 hc         1 8PA       0.055367
     50 H7S         -4.7750    -1.7300     0.8310 h1         1 8PA       0.070200
     51 H7SA        -5.7360    -3.1950     1.0820 h1         1 8PA       0.070200
     52 H6S         -8.2040    -2.5960     2.1270 h4         1 8PA       0.049100
     53 H2M        -11.1980     0.0210    -0.0560 hc         1 8PA       0.055033
     54 H2MA       -10.4520     1.5460     0.4420 hc         1 8PA       0.055033
     55 H2MB       -10.2610     0.9680    -1.2200 hc         1 8PA       0.055033
     56 HN4S        -5.3120     1.0410    -0.4020 hn         1 8PA       0.438800
     57 HN4A        -5.0080    -0.5780    -0.9430 hn         1 8PA       0.438800
     58 H25         -4.6640     0.1290     1.5190 h1         1 8PA       0.037700
     59 H26         -4.5510     2.0740     2.5390 ho         1 8PA       0.387000
@<TRIPOS>BOND
     1     1     6 ar  
     2     1    37 1   
     3     2     1 ar  
     4     2     3 ar  
     5     2    38 1   
     6     3     4 ar  
     7     3    39 1   
     8     4     5 ar  
     9     5    40 1   
    10     6     5 ar  
    11     6     7 1   
    12     7    41 1   
    13     8     7 2   
    14     8     9 1   
    15     8    42 1   
    16     9    11 1   
    17    10     9 1   
    18    11    27 2   
    19    11    12 1   
    20    12    13 1   
    21    13    14 1   
    22    14    15 1   
    23    14    43 1   
    24    14    44 1   
    25    15    16 1   
    26    15    45 1   
    27    15    46 1   
    28    16    17 1   
    29    17    18 1   
    30    19    17 1   
    31    20    17 1   
    32    20    21 1   
    33    21    24 1   
    34    21    23 1   
    35    22    21 1   
    36    25    13 2   
    37    25    26 1   
    38    26    47 1   
    39    26    48 1   
    40    26    49 1   
    41    27    25 1   
    42    28    27 1   
    43    28    50 1   
    44    28    51 1   
    45    29    28 1   
    46    29    30 ar  
    47    30    52 1   
    48    31    30 ar  
    49    32    31 ar  
    50    33    32 1   
    51    33    53 1   
    52    33    54 1   
    53    33    55 1   
    54    34    32 ar  
    55    34    35 ar  
    56    35    29 ar  
    57    36    35 1   
    58    36    56 1   
    59    36    57 1   
    60     9    58 1   
    61    10    59 1   
@<TRIPOS>SUBSTRUCTURE
     1 8PA         1 TEMP              0 ****  ****    0 ROOT
