@<TRIPOS>MOLECULE
8PC
   36    38     1     0     0
SMALL
bcc


@<TRIPOS>ATOM
      1 CL1        -0.0410    0.2160    0.5980 cl        1 8PC     -0.091400
      2 C17         1.6450    0.1290    0.3970 ca        1 8PC     -0.009600
      3 C16         2.4670    0.0070    1.5210 ca        1 8PC     -0.097000
      4 C15         3.8540   -0.0640    1.3670 ca        1 8PC     -0.001600
      5 CL2         4.8170   -0.2110    2.7550 cl        1 8PC     -0.063400
      6 C14         4.4080   -0.0140    0.0700 ca        1 8PC      0.138100
      7 C19         3.5740    0.1070   -1.0490 ca        1 8PC     -0.175000
      8 C22         2.1950    0.1790   -0.8870 ca        1 8PC     -0.092000
      9 O13         5.7900   -0.1150   -0.0160 os        1 8PC     -0.219200
     10 C2          6.3450    0.0610   -1.2820 ca        1 8PC      0.044100
     11 C3          6.6300   -1.0620   -2.0660 ca        1 8PC     -0.097000
     12 C4          7.3310   -0.9140   -3.2600 ca        1 8PC     -0.140000
     13 C5          7.7500    0.3530   -3.6860 ca        1 8PC     -0.033300
     14 C6          7.4660    1.4790   -2.9090 ca        1 8PC     -0.208000
     15 C1          6.7610    1.3400   -1.7050 ca        1 8PC      0.127100
     16 O22         6.4440    2.4080   -0.9020 oh        1 8PC     -0.476100
     17 C7          8.5180    0.4990   -4.9550 c3        1 8PC     -0.089400
     18 C23         7.6270    0.4080   -6.1660 ca        1 8PC      0.410600
     19 N24         7.1130   -0.8000   -6.5110 nb        1 8PC     -0.666000
     20 C25         6.3260   -0.8540   -7.6000 ca        1 8PC      0.400200
     21 C26         6.0100    0.2640   -8.3950 ca        1 8PC     -0.246300
     22 C27         6.5450    1.5000   -8.0340 ca        1 8PC     -0.090000
     23 C28         7.3640    1.5800   -6.9070 ca        1 8PC     -0.242300
     24 H16         2.0250   -0.0310    2.5300 ha        1 8PC      0.162000
     25 H19         4.0150    0.1480   -2.0570 ha        1 8PC      0.155000
     26 H22         1.5440    0.2750   -1.7690 ha        1 8PC      0.150000
     27 H3          6.3060   -2.0560   -1.7220 ha        1 8PC      0.154000
     28 H4          7.5530   -1.7970   -3.8790 ha        1 8PC      0.158000
     29 H6          7.7940    2.4770   -3.2340 ha        1 8PC      0.136000
     30 HO22        6.8260    3.2040   -1.3020 ho        1 8PC      0.421000
     31 H71         9.0500    1.4880   -4.9720 hc        1 8PC      0.067200
     32 H72         9.3030   -0.3050   -5.0050 hc        1 8PC      0.067200
     33 H25         5.9270   -1.8540   -7.8480 h4        1 8PC      0.023100
     34 H26         5.3620    0.1560   -9.2740 ha        1 8PC      0.145000
     35 H27         6.3260    2.4000   -8.6270 ha        1 8PC      0.139000
     36 H28         7.7990    2.5400   -6.5980 ha        1 8PC      0.141000
@<TRIPOS>BOND
     1    1    2 1   
     2    2    3 ar  
     3    2    8 ar  
     4    3    4 ar  
     5    3   24 1   
     6    4    5 1   
     7    4    6 ar  
     8    6    7 ar  
     9    6    9 1   
    10    7    8 ar  
    11    7   25 1   
    12    8   26 1   
    13    9   10 1   
    14   10   11 ar  
    15   10   15 ar  
    16   11   12 ar  
    17   11   27 1   
    18   12   13 ar  
    19   12   28 1   
    20   13   14 ar  
    21   13   17 1   
    22   14   15 ar  
    23   14   29 1   
    24   15   16 1   
    25   16   30 1   
    26   17   18 1   
    27   17   31 1   
    28   17   32 1   
    29   18   19 ar  
    30   18   23 ar  
    31   19   20 ar  
    32   20   21 ar  
    33   20   33 1   
    34   21   22 ar  
    35   21   34 1   
    36   22   23 ar  
    37   22   35 1   
    38   23   36 1   
@<TRIPOS>SUBSTRUCTURE
     1 8PC         1 TEMP              0 ****  ****    0 ROOT
