@<TRIPOS>MOLECULE
molecule
   36    38     1     0     0
SMALL
bcc


@<TRIPOS>ATOM
      1 Cl1          0.0000     0.0000     0.0000 cl         1 8PC      -0.105400
      2 C17          1.7360     0.0000     0.0000 ca         1 8PC      -0.001600
      3 C16          2.4270     0.0000     1.1990 ca         1 8PC      -0.086000
      4 C15          3.8090     0.0010     1.2020 ca         1 8PC       0.006400
      5 Cl2          4.6760    -0.0000     2.7060 cl         1 8PC      -0.085400
      6 C14          4.5040     0.0010    -0.0020 ca         1 8PC       0.154100
      7 C19          3.8090     0.0000    -1.2020 ca         1 8PC      -0.186000
      8 C22          2.4270    -0.0050    -1.1990 ca         1 8PC      -0.085000
      9 O13          5.8630     0.0010    -0.0020 os         1 8PC      -0.226200
     10 C2           6.5000     0.1130    -1.1980 ca         1 8PC       0.070100
     11 C3           6.9070    -1.0250    -1.8770 ca         1 8PC      -0.119000
     12 C4           7.5550    -0.9100    -3.0920 ca         1 8PC      -0.109000
     13 C5           7.8000     0.3380    -3.6340 ca         1 8PC      -0.053300
     14 C6           7.3970     1.4780    -2.9610 ca         1 8PC      -0.166000
     15 C1           6.7430     1.3700    -1.7460 ca         1 8PC       0.104100
     16 O22          6.3400     2.4880    -1.0860 oh         1 8PC      -0.505100
     17 C7           8.5080     0.4570    -4.9580 c3         1 8PC      -0.079400
     18 C23          7.4930     0.4520    -6.0720 ca         1 8PC       0.426600
     19 N24          6.6310    -0.5430    -6.1650 nb         1 8PC      -0.690000
     20 C25          5.7260    -0.5890    -7.1210 ca         1 8PC       0.425200
     21 C26          5.6480     0.4120    -8.0700 ca         1 8PC      -0.256300
     22 C27          6.5370     1.4740    -8.0060 ca         1 8PC      -0.089000
     23 C28          7.4720     1.4910    -6.9820 ca         1 8PC      -0.246300
     24 H16          1.8850    -0.0000     2.1370 ha         1 8PC       0.160000
     25 H19          4.3490    -0.0020    -2.1410 ha         1 8PC       0.159000
     26 H22          1.8840    -0.0060    -2.1360 ha         1 8PC       0.148000
     27 H3           6.7160    -2.0040    -1.4550 ha         1 8PC       0.151000
     28 H4           7.8720    -1.8010    -3.6220 ha         1 8PC       0.148000
     29 H6           7.5890     2.4550    -3.3880 ha         1 8PC       0.142000
     30 HO22         7.0960     2.9920    -0.8310 ho         1 8PC       0.425000
     31 H71          9.0690     1.3840    -4.9850 hc         1 8PC       0.064200
     32 H72          9.1850    -0.3790    -5.0820 hc         1 8PC       0.064200
     33 H25          5.0350    -1.4220    -7.1640 h4         1 8PC       0.024100
     34 H26          4.9030     0.3670    -8.8550 ha         1 8PC       0.139000
     35 H27          6.4990     2.2750    -8.7350 ha         1 8PC       0.139000
     36 H28          8.1820     2.3050    -6.9010 ha         1 8PC       0.138000
@<TRIPOS>BOND
     1     1     2 1   
     2     2     8 ar  
     3     2     3 ar  
     4     3     4 ar  
     5     3    24 1   
     6     4     6 ar  
     7     4     5 1   
     8     6     7 ar  
     9     6     9 1   
    10     7     8 ar  
    11     7    25 1   
    12     8    26 1   
    13     9    10 1   
    14    10    15 ar  
    15    10    11 ar  
    16    11    12 ar  
    17    11    27 1   
    18    12    13 ar  
    19    12    28 1   
    20    13    14 ar  
    21    13    17 1   
    22    14    15 ar  
    23    14    29 1   
    24    15    16 1   
    25    16    30 1   
    26    17    18 1   
    27    17    31 1   
    28    17    32 1   
    29    18    19 ar  
    30    18    23 ar  
    31    19    20 ar  
    32    20    21 ar  
    33    20    33 1   
    34    21    22 ar  
    35    21    34 1   
    36    22    23 ar  
    37    22    35 1   
    38    23    36 1   
@<TRIPOS>SUBSTRUCTURE
     1 8PC         1 TEMP              0 ****  ****    0 ROOT
