@<TRIPOS>MOLECULE
8PE
  120   119     1     0     0
SMALL
bcc


@<TRIPOS>ATOM
      1 P           0.4240   -1.8760   -0.7820 p5        1 8PE      1.433800
      2 N          -2.1620   -2.6880    2.6570 n3        1 8PE     -0.894800
      3 O11         1.2820   -1.2660    0.4990 os        1 8PE     -0.579200
      4 O12        -0.1030   -0.7630   -1.5870 o         1 8PE     -0.819500
      5 O13        -0.8370   -2.4630    0.1040 os        1 8PE     -0.581200
      6 O14         1.2130   -3.0380   -1.2420 o         1 8PE     -0.819500
      7 C11        -0.5820   -3.5820    0.8970 c3        1 8PE      0.150400
      8 C12        -0.8640   -3.2560    2.3760 c3        1 8PE      0.118800
      9 C1          1.0570    0.0540    0.8610 c3        1 8PE      0.189400
     10 C2          2.3650    0.8560    0.9730 c3        1 8PE      0.106100
     11 C3          3.4290    0.2230    1.8690 c3        1 8PE      0.127400
     12 O31         4.0000   -0.9210    1.2430 os        1 8PE     -0.441900
     13 O32         3.2750   -2.2600    2.8830 o         1 8PE     -0.575000
     14 C31         3.6220   -2.1640    1.7030 c         1 8PE      0.675100
     15 C32         3.7300   -3.2050    0.6430 c3        1 8PE     -0.164400
     16 C33         3.5760   -4.6090    1.1830 c3        1 8PE     -0.061400
     17 C34         3.1970   -5.5530    0.0610 c3        1 8PE     -0.096400
     18 C35         2.9170   -6.9450    0.5850 c3        1 8PE     -0.073400
     19 C36         2.5450   -7.8870   -0.5390 c3        1 8PE     -0.080400
     20 C37         2.2440   -9.2760   -0.0190 c3        1 8PE     -0.078400
     21 C38         1.8730  -10.2170   -1.1450 c3        1 8PE     -0.079400
     22 C39         1.5690  -11.6060   -0.6250 c3        1 8PE     -0.078400
     23 C3A         1.1980  -12.5460   -1.7520 c3        1 8PE     -0.079400
     24 C3B         0.8950  -13.9350   -1.2320 c3        1 8PE     -0.078400
     25 C3C         0.5240  -14.8760   -2.3590 c3        1 8PE     -0.079400
     26 C3D         0.2210  -16.2640   -1.8390 c3        1 8PE     -0.078400
     27 C3E        -0.1500  -17.2050   -2.9660 c3        1 8PE     -0.079400
     28 C3F        -0.4540  -18.5930   -2.4470 c3        1 8PE     -0.079400
     29 C3G        -0.8240  -19.5330   -3.5740 c3        1 8PE     -0.079400
     30 C3H        -1.1280  -20.9230   -3.0560 c3        1 8PE     -0.080400
     31 C3I        -1.4970  -21.8630   -4.1740 c3        1 8PE     -0.092100
     32 O21         2.8560    1.0020   -0.3700 os        1 8PE     -0.393900
     33 O22         3.9920    2.8360    0.2530 o         1 8PE     -0.584000
     34 C21         3.6920    2.0380   -0.6430 c         1 8PE      0.637100
     35 C22         4.1380    2.0340   -2.0740 c3        1 8PE     -0.133400
     36 C23         4.4970    3.4270   -2.5420 c3        1 8PE     -0.076400
     37 C24         5.0580    3.3940   -3.9470 c3        1 8PE     -0.079400
     38 C25         5.4030    4.7870   -4.4300 c3        1 8PE     -0.078400
     39 C26         5.9680    4.7570   -5.8340 c3        1 8PE     -0.079400
     40 C27         6.3130    6.1490   -6.3170 c3        1 8PE     -0.078400
     41 C28         6.8780    6.1200   -7.7210 c3        1 8PE     -0.079400
     42 C29         7.2230    7.5120   -8.2050 c3        1 8PE     -0.078400
     43 C2A         7.7890    7.4820   -9.6080 c3        1 8PE     -0.079400
     44 C2B         8.1330    8.8740  -10.0930 c3        1 8PE     -0.079400
     45 C2C         8.6990    8.8450  -11.4960 c3        1 8PE     -0.079400
     46 C2D         9.0440   10.2360  -11.9820 c3        1 8PE     -0.080400
     47 C2E         9.6080   10.2110  -13.3790 c3        1 8PE     -0.092100
     48 HN         -2.2310   -1.7940    2.2030 hn        1 8PE      0.336300
     49 HNA        -2.8760   -3.2730    2.2620 hn        1 8PE      0.336300
     50 H11        -1.2670   -4.4140    0.5650 h1        1 8PE      0.028700
     51 H11A        0.4860   -3.9170    0.7770 h1        1 8PE      0.028700
     52 H12        -0.0810   -2.5310    2.7370 h1        1 8PE      0.047700
     53 H12A       -0.7600   -4.2080    2.9670 h1        1 8PE      0.047700
     54 H1          0.5900    0.0750    1.8890 h1        1 8PE      0.047700
     55 H1A         0.3810    0.5570    0.1120 h1        1 8PE      0.047700
     56 H2          2.1260    1.8770    1.3890 h1        1 8PE      0.054700
     57 H3          2.9790   -0.0310    2.8630 h1        1 8PE      0.064200
     58 H3A         4.2890    0.9370    1.9920 h1        1 8PE      0.064200
     59 H32         4.6970   -3.0870    0.0920 hc        1 8PE      0.115700
     60 H32A        2.8850   -2.9810   -0.0930 hc        1 8PE      0.115700
     61 H33         2.7760   -4.6180    1.9710 hc        1 8PE      0.036700
     62 H33A        4.5270   -4.9460    1.6710 hc        1 8PE      0.036700
     63 H34         2.2910   -5.1450   -0.4710 hc        1 8PE      0.067700
     64 H34A        4.0280   -5.5940   -0.6910 hc        1 8PE      0.067700
     65 H35         3.8200   -7.3380    1.1230 hc        1 8PE      0.029700
     66 H35A        2.0810   -6.9020    1.3320 hc        1 8PE      0.029700
     67 H36         1.6490   -7.4830   -1.0820 hc        1 8PE      0.043700
     68 H36A        3.3850   -7.9370   -1.2810 hc        1 8PE      0.043700
     69 H37         1.4020   -9.2250    0.7210 hc        1 8PE      0.035200
     70 H37A        3.1380   -9.6760    0.5270 hc        1 8PE      0.035200
     71 H38         0.9780   -9.8150   -1.6900 hc        1 8PE      0.040200
     72 H38A        2.7140  -10.2680   -1.8850 hc        1 8PE      0.040200
     73 H39         2.4630  -12.0070   -0.0790 hc        1 8PE      0.037200
     74 H39A        0.7270  -11.5540    0.1140 hc        1 8PE      0.037200
     75 H3AA        2.0410  -12.5970   -2.4910 hc        1 8PE      0.039200
     76 H3AB        0.3040  -12.1450   -2.2970 hc        1 8PE      0.039200
     77 H3B         0.0520  -13.8840   -0.4930 hc        1 8PE      0.037700
     78 H3BA        1.7890  -14.3360   -0.6860 hc        1 8PE      0.037700
     79 H3C         1.3670  -14.9270   -3.0980 hc        1 8PE      0.039200
     80 H3CA       -0.3700  -14.4740   -2.9050 hc        1 8PE      0.039200
     81 H3D         1.1150  -16.6660   -1.2930 hc        1 8PE      0.038700
     82 H3DA       -0.6220  -16.2130   -1.1000 hc        1 8PE      0.038700
     83 H3E         0.6930  -17.2560   -3.7050 hc        1 8PE      0.039200
     84 H3EA       -1.0440  -16.8030   -3.5120 hc        1 8PE      0.039200
     85 H3F        -1.2960  -18.5420   -1.7080 hc        1 8PE      0.038700
     86 H3FA        0.4400  -18.9940   -1.9010 hc        1 8PE      0.038700
     87 H3G         0.0190  -19.5850   -4.3130 hc        1 8PE      0.039200
     88 H3GA       -1.7180  -19.1320   -4.1200 hc        1 8PE      0.039200
     89 H3H        -1.9700  -20.8690   -2.3160 hc        1 8PE      0.037700
     90 H3HA       -0.2330  -21.3220   -2.5080 hc        1 8PE      0.037700
     91 H3I        -0.6600  -21.9480   -4.9090 hc        1 8PE      0.031033
     92 H3IA       -2.4020  -21.4940   -4.7160 hc        1 8PE      0.031033
     93 H3IB       -1.7170  -22.8800   -3.7710 hc        1 8PE      0.031033
     94 H22         5.0280    1.3520   -2.1440 hc        1 8PE      0.084700
     95 H22A        3.3240    1.5960   -2.7120 hc        1 8PE      0.084700
     96 H23         5.2450    3.8780   -1.8380 hc        1 8PE      0.052200
     97 H23A        3.5830    4.0780   -2.5130 hc        1 8PE      0.052200
     98 H24         5.9760    2.7500   -3.9710 hc        1 8PE      0.041700
     99 H24A        4.3090    2.9290   -4.6410 hc        1 8PE      0.041700
    100 H25         6.1480    5.2530   -3.7330 hc        1 8PE      0.039700
    101 H25A        4.4840    5.4300   -4.4080 hc        1 8PE      0.039700
    102 H26         5.2220    4.2910   -6.5300 hc        1 8PE      0.040200
    103 H26A        6.8870    4.1140   -5.8550 hc        1 8PE      0.040200
    104 H27         7.0580    6.6160   -5.6210 hc        1 8PE      0.038700
    105 H27A        5.3940    6.7930   -6.2960 hc        1 8PE      0.038700
    106 H28         6.1330    5.6530   -8.4170 hc        1 8PE      0.039200
    107 H28A        7.7970    5.4760   -7.7420 hc        1 8PE      0.039200
    108 H29         7.9680    7.9790   -7.5080 hc        1 8PE      0.038700
    109 H29A        6.3040    8.1550   -8.1840 hc        1 8PE      0.038700
    110 H2A         8.7070    6.8390   -9.6300 hc        1 8PE      0.039200
    111 H2AA        7.0430    7.0160  -10.3050 hc        1 8PE      0.039200
    112 H2B         8.8790    9.3410   -9.3960 hc        1 8PE      0.038700
    113 H2BA        7.2140    9.5180  -10.0710 hc        1 8PE      0.038700
    114 H2C         9.6180    8.2010  -11.5180 hc        1 8PE      0.039200
    115 H2CA        7.9530    8.3780  -12.1930 hc        1 8PE      0.039200
    116 H2D         9.7880   10.7020  -11.2830 hc        1 8PE      0.037700
    117 H2DA        8.1240   10.8790  -11.9580 hc        1 8PE      0.037700
    118 H2E        10.5390    9.5960  -13.4170 hc        1 8PE      0.031033
    119 H2EA        8.8700    9.7730  -14.0940 hc        1 8PE      0.031033
    120 H2EB        9.8550   11.2470  -13.7170 hc        1 8PE      0.031033
@<TRIPOS>BOND
     1    1    3 1   
     2    1    4 1   
     3    1    5 1   
     4    1    6 1   
     5    2    8 1   
     6    2   48 1   
     7    2   49 1   
     8    3    9 1   
     9    5    7 1   
    10    7    8 1   
    11    7   50 1   
    12    7   51 1   
    13    8   52 1   
    14    8   53 1   
    15    9   10 1   
    16    9   54 1   
    17    9   55 1   
    18   10   11 1   
    19   10   32 1   
    20   10   56 1   
    21   11   12 1   
    22   11   57 1   
    23   11   58 1   
    24   12   14 1   
    25   13   14 2   
    26   14   15 1   
    27   15   16 1   
    28   15   59 1   
    29   15   60 1   
    30   16   17 1   
    31   16   61 1   
    32   16   62 1   
    33   17   18 1   
    34   17   63 1   
    35   17   64 1   
    36   18   19 1   
    37   18   65 1   
    38   18   66 1   
    39   19   20 1   
    40   19   67 1   
    41   19   68 1   
    42   20   21 1   
    43   20   69 1   
    44   20   70 1   
    45   21   22 1   
    46   21   71 1   
    47   21   72 1   
    48   22   23 1   
    49   22   73 1   
    50   22   74 1   
    51   23   24 1   
    52   23   75 1   
    53   23   76 1   
    54   24   25 1   
    55   24   77 1   
    56   24   78 1   
    57   25   26 1   
    58   25   79 1   
    59   25   80 1   
    60   26   27 1   
    61   26   81 1   
    62   26   82 1   
    63   27   28 1   
    64   27   83 1   
    65   27   84 1   
    66   28   29 1   
    67   28   85 1   
    68   28   86 1   
    69   29   30 1   
    70   29   87 1   
    71   29   88 1   
    72   30   31 1   
    73   30   89 1   
    74   30   90 1   
    75   31   91 1   
    76   31   92 1   
    77   31   93 1   
    78   32   34 1   
    79   33   34 2   
    80   34   35 1   
    81   35   36 1   
    82   35   94 1   
    83   35   95 1   
    84   36   37 1   
    85   36   96 1   
    86   36   97 1   
    87   37   38 1   
    88   37   98 1   
    89   37   99 1   
    90   38   39 1   
    91   38  100 1   
    92   38  101 1   
    93   39   40 1   
    94   39  102 1   
    95   39  103 1   
    96   40   41 1   
    97   40  104 1   
    98   40  105 1   
    99   41   42 1   
   100   41  106 1   
   101   41  107 1   
   102   42   43 1   
   103   42  108 1   
   104   42  109 1   
   105   43   44 1   
   106   43  110 1   
   107   43  111 1   
   108   44   45 1   
   109   44  112 1   
   110   44  113 1   
   111   45   46 1   
   112   45  114 1   
   113   45  115 1   
   114   46   47 1   
   115   46  116 1   
   116   46  117 1   
   117   47  118 1   
   118   47  119 1   
   119   47  120 1   
@<TRIPOS>SUBSTRUCTURE
     1 8PE         1 TEMP              0 ****  ****    0 ROOT
