@<TRIPOS>MOLECULE
molecule
   25    24     1     0     0
SMALL
bcc


@<TRIPOS>ATOM
      1 C13          0.3470    -0.4900     0.0470 c3         1 8PF       0.334600
      2 C16          1.6260     0.3460    -0.0300 c3         1 8PF       0.328600
      3 C19          2.8440    -0.5750     0.0660 c3         1 8PF       0.326600
      4 C10         -0.8710     0.4310    -0.0490 c3         1 8PF       0.321600
      5 C22          4.1230     0.2610    -0.0100 c3         1 8PF       0.586900
      6 F01         -2.1720    -1.3210    -1.0310 f          1 8PF      -0.184800
      7 C02         -2.1500    -0.4060     0.0270 c3         1 8PF       0.354600
      8 F03         -2.1830    -1.0970     1.2430 f          1 8PF      -0.184800
      9 C04         -3.3680     0.5150    -0.0690 c3         1 8PF       0.266600
     10 F05         -3.3450     1.4310     0.9890 f          1 8PF      -0.224800
     11 F06         -3.3350     1.2070    -1.2840 f          1 8PF      -0.224800
     12 C07         -4.6270    -0.3080     0.0070 c          1 8PF       0.870600
     13 O08         -5.7690     0.2490     0.4400 o          1 8PF      -0.779300
     14 O09         -4.6100    -1.4700    -0.3230 o          1 8PF      -0.779300
     15 F11         -0.8480     1.3460     1.0090 f          1 8PF      -0.183300
     16 F12         -0.8380     1.1220    -1.2650 f          1 8PF      -0.183300
     17 F14          0.3240    -1.4060    -1.0110 f          1 8PF      -0.175800
     18 F15          0.3140    -1.1820     1.2620 f          1 8PF      -0.175800
     19 F17          1.6590     1.0370    -1.2450 f          1 8PF      -0.175300
     20 F18          1.6490     1.2610     1.0280 f          1 8PF      -0.175300
     21 F20          2.8110    -1.2670     1.2820 f          1 8PF      -0.175300
     22 F21          2.8210    -1.4900    -0.9920 f          1 8PF      -0.175300
     23 F23          5.2370    -0.5810     0.0770 f          1 8PF      -0.197633
     24 F24          4.1560     0.9530    -1.2260 f          1 8PF      -0.197633
     25 F25          4.1460     1.1760     1.0480 f          1 8PF      -0.197633
@<TRIPOS>BOND
     1    14    12 1   
     2    13    12 1   
     3    12     9 1   
     4    11     9 1   
     5     9    10 1   
     6     9     7 1   
     7     6     7 1   
     8     7     8 1   
     9     7     4 1   
    10    15     4 1   
    11     4    16 1   
    12     4     1 1   
    13    17     1 1   
    14     1    18 1   
    15     1     2 1   
    16    19     2 1   
    17     2    20 1   
    18     2     3 1   
    19    24     5 1   
    20     3     5 1   
    21     3    22 1   
    22     3    21 1   
    23     5    25 1   
    24     5    23 1   
@<TRIPOS>SUBSTRUCTURE
     1 8PF         1 TEMP              0 ****  ****    0 ROOT
