@<TRIPOS>MOLECULE
8PG
   55    55     1     0     0
SMALL
bcc


@<TRIPOS>ATOM
      1 CAA        -0.3350   -0.9040    2.6240 c3        1 8PG     -0.092100
      2 CAJ         0.9990   -0.9230    1.9230 c3        1 8PG     -0.080400
      3 CAK         1.9950   -0.0040    2.5980 c3        1 8PG     -0.078400
      4 CAO         3.3310   -0.0260    1.8880 c3        1 8PG     -0.079400
      5 CAR         4.3290    0.8870    2.5650 c3        1 8PG     -0.109400
      6 CAV         5.6730    0.9200    1.8350 c3        1 8PG      0.171300
      7 OAE         5.5010    1.2610    0.4600 oh        1 8PG     -0.595800
      8 CAH         6.3670   -0.4030    1.8610 c2        1 8PG     -0.158200
      9 CAI         7.0020   -0.9280    2.9100 c2        1 8PG     -0.154200
     10 CAW         7.1190   -0.3110    4.2560 c3        1 8PG     -0.020300
     11 CAG         6.3080   -1.0890    5.2680 c2        1 8PG     -0.112200
     12 CAF         7.0480   -1.4910    6.3150 ce        1 8PG     -0.256200
     13 CAU         8.4590   -1.0470    6.1590 c         1 8PG      0.560300
     14 OAC         9.3630   -1.2280    6.9700 o         1 8PG     -0.511100
     15 CAX         8.5590   -0.2900    4.8370 c3        1 8PG     -0.159700
     16 CAS         9.6160   -0.8640    3.9140 c3        1 8PG     -0.063400
     17 CAP        11.0170   -0.4930    4.3570 c3        1 8PG     -0.087400
     18 CAM        12.0520   -1.0690    3.4140 c3        1 8PG     -0.077400
     19 CAL        13.4540   -0.6520    3.8050 c3        1 8PG     -0.078400
     20 CAN        14.4800   -1.1810    2.8250 c3        1 8PG     -0.066400
     21 CAQ        15.8830   -0.7720    3.2000 c3        1 8PG     -0.193400
     22 CAT        16.8860   -1.1210    2.0860 c         1 8PG      0.907600
     23 OAD        16.5820   -0.8420    0.8890 o         1 8PG     -0.853300
     24 OAB        17.9810   -1.6560    2.4260 o         1 8PG     -0.853300
     25 HAA1       -1.0530   -1.5880    2.1110 hc        1 8PG      0.031367
     26 HAA2       -0.2280   -1.2360    3.6850 hc        1 8PG      0.031367
     27 HAA3       -0.7660    0.1260    2.6230 hc        1 8PG      0.031367
     28 HAJ1        0.8680   -0.6100    0.8540 hc        1 8PG      0.040200
     29 HAJ2        1.4050   -1.9690    1.9130 hc        1 8PG      0.040200
     30 HAK1        1.5910    1.0430    2.6110 hc        1 8PG      0.036200
     31 HAK2        2.1310   -0.3180    3.6670 hc        1 8PG      0.036200
     32 HAO1        3.7370   -1.0720    1.8710 hc        1 8PG      0.050700
     33 HAO2        3.2020    0.2930    0.8200 hc        1 8PG      0.050700
     34 HAR1        4.5050    0.5460    3.6190 hc        1 8PG      0.043200
     35 HAR2        3.9160    1.9290    2.6080 hc        1 8PG      0.043200
     36 HAV         6.3260    1.7080    2.3160 h1        1 8PG      0.040700
     37 HAE         5.0080    2.0890    0.4430 ho        1 8PG      0.398000
     38 HAH         6.3400   -0.9410    0.8960 ha        1 8PG      0.147000
     39 HAI         7.4870   -1.9160    2.8130 ha        1 8PG      0.137000
     40 HAW         6.7340    0.7470    4.2290 hc        1 8PG      0.062700
     41 HAG         5.2440   -1.2640    5.0970 ha        1 8PG      0.141000
     42 HAF         6.7270   -2.0620    7.1880 ha        1 8PG      0.156000
     43 HAX         8.8340    0.7750    5.0740 hc        1 8PG      0.079700
     44 HAS1        9.5200   -1.9810    3.8730 hc        1 8PG      0.047700
     45 HAS2        9.4450   -0.4720    2.8760 hc        1 8PG      0.047700
     46 HAP1       11.1940   -0.8720    5.3990 hc        1 8PG      0.046700
     47 HAP2       11.1180    0.6230    4.3870 hc        1 8PG      0.046700
     48 HAM1       11.8410   -0.7260    2.3670 hc        1 8PG      0.035700
     49 HAM2       11.9800   -2.1890    3.4150 hc        1 8PG      0.035700
     50 HAL1       13.6840   -1.0300    4.8360 hc        1 8PG      0.027700
     51 HAL2       13.5150    0.4680    3.8430 hc        1 8PG      0.027700
     52 HAN1       14.2600   -0.8000    1.7920 hc        1 8PG      0.043700
     53 HAN2       14.4160   -2.3000    2.7840 hc        1 8PG      0.043700
     54 HAQ1       16.1950   -1.2720    4.1510 hc        1 8PG      0.019200
     55 HAQ2       15.9280    0.3350    3.3640 hc        1 8PG      0.019200
@<TRIPOS>BOND
     1    1    2 1   
     2    1   25 1   
     3    1   26 1   
     4    1   27 1   
     5    2    3 1   
     6    2   28 1   
     7    2   29 1   
     8    3    4 1   
     9    3   30 1   
    10    3   31 1   
    11    4    5 1   
    12    4   32 1   
    13    4   33 1   
    14    5    6 1   
    15    5   34 1   
    16    5   35 1   
    17    6    7 1   
    18    6    8 1   
    19    6   36 1   
    20    7   37 1   
    21    8    9 2   
    22    8   38 1   
    23    9   10 1   
    24    9   39 1   
    25   10   11 1   
    26   10   15 1   
    27   10   40 1   
    28   11   12 2   
    29   11   41 1   
    30   12   13 1   
    31   12   42 1   
    32   13   14 2   
    33   13   15 1   
    34   15   16 1   
    35   15   43 1   
    36   16   17 1   
    37   16   44 1   
    38   16   45 1   
    39   17   18 1   
    40   17   46 1   
    41   17   47 1   
    42   18   19 1   
    43   18   48 1   
    44   18   49 1   
    45   19   20 1   
    46   19   50 1   
    47   19   51 1   
    48   20   21 1   
    49   20   52 1   
    50   20   53 1   
    51   21   22 1   
    52   21   54 1   
    53   21   55 1   
    54   22   23 1   
    55   22   24 1   
@<TRIPOS>SUBSTRUCTURE
     1 8PG         1 TEMP              0 ****  ****    0 ROOT
