@<TRIPOS>MOLECULE
molecule
   55    55     1     0     0
SMALL
bcc


@<TRIPOS>ATOM
      1 CAA          0.0000     0.0000     0.0000 c3         1 8PG      -0.092100
      2 CAJ          1.5310     0.0000     0.0000 c3         1 8PG      -0.084400
      3 CAK          2.0410     0.0000     1.4420 c3         1 8PG      -0.080400
      4 CAO          3.5700     0.0000     1.4420 c3         1 8PG      -0.084400
      5 CAR          4.0810    -0.0000     2.8850 c3         1 8PG      -0.087400
      6 CAV          5.6110     0.0000     2.8840 c3         1 8PG       0.185300
      7 OAE          6.0860    -1.2220     2.3160 oh         1 8PG      -0.605800
      8 CAH          6.1130     0.1240     4.3000 c2         1 8PG      -0.213200
      9 CAI          6.9450    -0.7670     4.7800 c2         1 8PG      -0.128200
     10 CAW          7.4470    -0.6420     6.1960 c3         1 8PG      -0.023300
     11 CAG          7.1120    -1.8860     6.9790 c2         1 8PG      -0.103200
     12 CAF          8.2180    -2.4760     7.4110 ce         1 8PG      -0.258200
     13 CAU          9.4210    -1.7570     7.0070 c          1 8PG       0.569300
     14 OAC         10.5640    -2.0710     7.2630 o          1 8PG      -0.501100
     15 CAX          8.9830    -0.5450     6.2080 c3         1 8PG      -0.171700
     16 CAS          9.5380    -0.6130     4.7850 c3         1 8PG      -0.063400
     17 CAP         11.0630    -0.4860     4.8250 c3         1 8PG      -0.094400
     18 CAM         11.6180    -0.5530     3.4010 c3         1 8PG      -0.079400
     19 CAL         13.1430    -0.4280     3.4410 c3         1 8PG      -0.087400
     20 CAN         13.6980    -0.4950     2.0170 c3         1 8PG      -0.063400
     21 CAQ         15.2230    -0.3680     2.0590 c3         1 8PG      -0.183400
     22 CAT         15.7690    -0.4350     0.6550 c          1 8PG       0.891600
     23 OAD         15.0170    -0.5690    -0.2800 o          1 8PG      -0.858800
     24 OAB         17.0920    -0.3450     0.4460 o          1 8PG      -0.858800
     25 HAA1        -0.3610    -0.8850     0.5090 hc         1 8PG       0.030700
     26 HAA2        -0.3610     0.0020    -1.0210 hc         1 8PG       0.030700
     27 HAA3        -0.3610     0.8840     0.5120 hc         1 8PG       0.030700
     28 HAJ1         1.8920    -0.8850    -0.5110 hc         1 8PG       0.041200
     29 HAJ2         1.8920     0.8840    -0.5110 hc         1 8PG       0.041200
     30 HAK1         1.6790    -0.8850     1.9530 hc         1 8PG       0.039700
     31 HAK2         1.6790     0.8840     1.9530 hc         1 8PG       0.039700
     32 HAO1         3.9310     0.8850     0.9310 hc         1 8PG       0.045200
     33 HAO2         3.9310    -0.8840     0.9310 hc         1 8PG       0.045200
     34 HAR1         3.7200    -0.8850     3.3960 hc         1 8PG       0.050200
     35 HAR2         3.7200     0.8840     3.3960 hc         1 8PG       0.050200
     36 HAV          5.9720     0.8360     2.2970 h1         1 8PG       0.039700
     37 HAE          6.6100    -1.0320     1.5550 ho         1 8PG       0.407000
     38 HAH          5.7860     0.9500     4.9200 ha         1 8PG       0.123000
     39 HAI          7.2720    -1.5920     4.1600 ha         1 8PG       0.159000
     40 HAW          7.0160     0.2270     6.6770 hc         1 8PG       0.061700
     41 HAG          6.2100    -1.9230     7.5780 ha         1 8PG       0.138000
     42 HAF          8.2070    -3.0350     8.3390 ha         1 8PG       0.145000
     43 HAX          9.2990     0.3660     6.7010 hc         1 8PG       0.079700
     44 HAS1         9.2670    -1.5610     4.3360 hc         1 8PG       0.049200
     45 HAS2         9.1240     0.1970     4.1960 hc         1 8PG       0.049200
     46 HAP1        11.3340     0.4610     5.2740 hc         1 8PG       0.050700
     47 HAP2        11.4770    -1.2970     5.4130 hc         1 8PG       0.050700
     48 HAM1        11.3460    -1.5010     2.9510 hc         1 8PG       0.035700
     49 HAM2        11.2050     0.2570     2.8140 hc         1 8PG       0.035700
     50 HAL1        13.4150     0.5190     3.8910 hc         1 8PG       0.031200
     51 HAL2        13.5560    -1.2380     4.0290 hc         1 8PG       0.031200
     52 HAN1        13.4270    -1.4420     1.5680 hc         1 8PG       0.043700
     53 HAN2        13.2840     0.3160     1.4300 hc         1 8PG       0.043700
     54 HAQ1        15.4940     0.5790     2.5080 hc         1 8PG       0.027200
     55 HAQ2        15.6360    -1.1790     2.6470 hc         1 8PG       0.027200
@<TRIPOS>BOND
     1     1     2 1   
     2     1    25 1   
     3     1    26 1   
     4     1    27 1   
     5     2     3 1   
     6     2    28 1   
     7     2    29 1   
     8     3     4 1   
     9     3    30 1   
    10     3    31 1   
    11     4     5 1   
    12     4    32 1   
    13     4    33 1   
    14     5     6 1   
    15     5    34 1   
    16     5    35 1   
    17     6     7 1   
    18     6     8 1   
    19     6    36 1   
    20     7    37 1   
    21     8     9 2   
    22     8    38 1   
    23     9    10 1   
    24     9    39 1   
    25    10    11 1   
    26    10    15 1   
    27    10    40 1   
    28    11    12 2   
    29    11    41 1   
    30    12    13 1   
    31    12    42 1   
    32    13    14 2   
    33    13    15 1   
    34    15    16 1   
    35    15    43 1   
    36    16    17 1   
    37    16    44 1   
    38    16    45 1   
    39    17    18 1   
    40    17    46 1   
    41    17    47 1   
    42    18    19 1   
    43    18    48 1   
    44    18    49 1   
    45    19    20 1   
    46    19    50 1   
    47    19    51 1   
    48    20    21 1   
    49    20    52 1   
    50    20    53 1   
    51    21    22 1   
    52    21    54 1   
    53    21    55 1   
    54    22    23 1   
    55    22    24 1   
@<TRIPOS>SUBSTRUCTURE
     1 8PG         1 TEMP              0 ****  ****    0 ROOT
