@<TRIPOS>MOLECULE
molecule
   53    53     1     0     0
SMALL
bcc


@<TRIPOS>ATOM
      1 OAE          0.0000     0.0000     0.0000 o          1 8PH      -0.888333
      2 PAY          1.6110     0.0000     0.0000 p5         1 8PH       1.044200
      3 OAF          2.1480    -1.3140    -0.7600 o          1 8PH      -0.888333
      4 OAB          2.1180     1.2450    -0.7180 o          1 8PH      -0.888333
      5 CAX          2.2180     0.0000     1.7180 c3         1 8PH      -0.118600
      6 PAZ          4.0370     0.1330     1.7200 p5         1 8PH       1.044200
      7 OAG          4.5540     0.0080     3.1470 o          1 8PH      -0.888333
      8 OAH          4.6280    -0.9810     0.8660 o          1 8PH      -0.888333
      9 OAC          4.4710     1.5600     1.1140 o          1 8PH      -0.888333
     10 OAD          1.6590     1.1120     2.4220 oh         1 8PH      -0.651800
     11 CAU          1.8020    -1.3010     2.4060 c3         1 8PH       0.061300
     12 NAW          2.1670    -1.2420     3.8240 na         1 8PH       0.042900
     13 CAK          3.2780    -1.7650     4.3870 cc         1 8PH       0.014400
     14 CAJ          1.4500    -0.6430     4.8240 cd         1 8PH      -0.075300
     15 CAI          2.1440    -0.8250     5.9630 cc         1 8PH      -0.290300
     16 NAV          3.2590    -1.5090     5.6670 na         1 8PH      -0.046100
     17 CAT          4.2910    -1.9090     6.6270 c3         1 8PH       0.062300
     18 CAS          5.3520    -0.8120     6.7240 c3         1 8PH      -0.110400
     19 CAR          6.4280    -1.2300     7.7260 c3         1 8PH      -0.081400
     20 CAQ          7.4890    -0.1310     7.8230 c3         1 8PH      -0.079400
     21 CAP          8.5660    -0.5500     8.8270 c3         1 8PH      -0.083400
     22 CAO          9.6270     0.5480     8.9240 c3         1 8PH      -0.082400
     23 CAN         10.7040     0.1300     9.9270 c3         1 8PH      -0.082400
     24 CAM         11.7650     1.2280    10.0240 c3         1 8PH      -0.082400
     25 CAL         12.8410     0.8100    11.0270 c3         1 8PH      -0.084400
     26 CAA         13.9030     1.9080    11.1240 c3         1 8PH      -0.092100
     27 H5           1.6510     1.8680     1.8590 ho         1 8PH       0.419000
     28 H6           2.3080    -2.1360     1.9370 h1         1 8PH       0.076200
     29 H7           0.7300    -1.4310     2.3150 h1         1 8PH       0.076200
     30 H8           4.0580    -2.3040     3.8630 h5         1 8PH       0.247000
     31 H9           0.5030    -0.1280     4.7200 h4         1 8PH       0.190000
     32 H10          1.8560    -0.4740     6.9470 h4         1 8PH       0.139000
     33 H11          4.7540    -2.8300     6.2960 h1         1 8PH       0.032700
     34 H12          3.8390    -2.0610     7.5990 h1         1 8PH       0.032700
     35 H13          4.8880     0.1100     7.0550 hc         1 8PH       0.095200
     36 H14          5.8040    -0.6590     5.7510 hc         1 8PH       0.095200
     37 H15          6.8920    -2.1510     7.3950 hc         1 8PH       0.020700
     38 H16          5.9760    -1.3820     8.6990 hc         1 8PH       0.020700
     39 H17          7.9420     0.0200     6.8510 hc         1 8PH       0.057200
     40 H18          7.0260     0.7900     8.1540 hc         1 8PH       0.057200
     41 H19          8.1140    -0.7020     9.8000 hc         1 8PH       0.029700
     42 H20          9.0300    -1.4720     8.4970 hc         1 8PH       0.029700
     43 H21          9.1630     1.4700     9.2540 hc         1 8PH       0.046700
     44 H22         10.0790     0.7000     7.9510 hc         1 8PH       0.046700
     45 H23         11.1680    -0.7910     9.5960 hc         1 8PH       0.034200
     46 H24         10.2520    -0.0220    10.8990 hc         1 8PH       0.034200
     47 H25         11.3010     2.1490    10.3560 hc         1 8PH       0.043200
     48 H26         12.2170     1.3810     9.0520 hc         1 8PH       0.043200
     49 H27         12.3890     0.6580    12.0000 hc         1 8PH       0.034700
     50 H28         13.3050    -0.1110    10.6960 hc         1 8PH       0.034700
     51 H29         14.6650     1.6120    11.8350 hc         1 8PH       0.028033
     52 H30         13.4390     2.8300    11.4550 hc         1 8PH       0.028033
     53 H31         14.3550     2.0600    10.1520 hc         1 8PH       0.028033
@<TRIPOS>BOND
     1    26    25 1
     2    25    24 1
     3    24    23 1
     4    23    22 1
     5    22    21 1
     6    21    20 1
     7    20    19 1
     8    19    18 1
     9    18    17 1
    10    17    16 1
    11    16    13 1
    12    16    15 1
    13    13    12 2
    14    15    14 2
    15     4     2 1
    16    12    14 1
    17    12    11 1
    18     3     2 1
    19     2     1 1
    20     2     5 1
    21    11     5 1
    22     5    10 1
    23     5     6 1
    24     8     6 1
    25     6     7 1
    26     6     9 1
    27    10    27 1
    28    11    28 1
    29    11    29 1
    30    13    30 1
    31    14    31 1
    32    15    32 1
    33    17    33 1
    34    17    34 1
    35    18    35 1
    36    18    36 1
    37    19    37 1
    38    19    38 1
    39    20    39 1
    40    20    40 1
    41    21    41 1
    42    21    42 1
    43    22    43 1
    44    22    44 1
    45    23    45 1
    46    23    46 1
    47    24    47 1
    48    24    48 1
    49    25    49 1
    50    25    50 1
    51    26    51 1
    52    26    52 1
    53    26    53 1
@<TRIPOS>SUBSTRUCTURE
     1 8PH         1 TEMP              0 ****  ****    0 ROOT
