@<TRIPOS>MOLECULE
8PH
   53    54     1     0     0
SMALL
bcc


@<TRIPOS>ATOM
      1 OAE         6.4560    2.5040    4.0480 o         1 8PH     -0.915500
      2 PAY         7.3570    1.4300    3.4940 p5        1 8PH      1.213700
      3 OAF         7.3790    1.3710    1.9990 o         1 8PH     -0.915500
      4 OAB         8.6780    1.3030    4.1900 o         1 8PH     -0.915500
      5 CAX         6.2340   -0.2300    4.1080 c3        1 8PH     -0.308600
      6 PAZ         6.5370   -1.8520    4.2860 p5        1 8PH      1.465600
      7 OAG         4.9020   -2.4580    4.4200 os        1 8PH     -0.588200
      8 OAH         6.9590   -2.5900    3.0700 o         1 8PH     -0.893500
      9 OAC         7.0720   -2.3180    5.5930 o         1 8PH     -0.893500
     10 OAD         5.9750    0.2670    5.4060 oh        1 8PH     -0.631800
     11 CAU         5.1180   -0.0110    3.1250 c3        1 8PH      0.171800
     12 NAW         3.7720   -0.4530    3.4990 nh        1 8PH     -0.651400
     13 CAK         3.7250   -1.8330    4.1380 c3        1 8PH      0.691500
     14 CAJ         3.0210    0.3740    4.3630 c2        1 8PH     -0.001000
     15 CAI         2.4240   -0.3310    5.3770 c2        1 8PH     -0.172000
     16 NAV         2.7650   -1.7220    5.3430 nh        1 8PH     -0.647400
     17 CAT         3.2310   -2.2730    6.5970 c3        1 8PH      0.184800
     18 CAS         3.9650   -1.3370    7.5560 c3        1 8PH     -0.111400
     19 CAR         4.5980   -2.1040    8.6980 c3        1 8PH     -0.063400
     20 CAQ         5.6260   -1.2590    9.4280 c3        1 8PH     -0.055400
     21 CAP         6.9510   -1.2380    8.6920 c3        1 8PH     -0.118400
     22 CAO         7.6980    0.0670    8.8730 c3        1 8PH     -0.049400
     23 CAN         8.7610    0.2180    7.8060 c3        1 8PH     -0.096400
     24 CAM         9.5390    1.5050    7.9670 c3        1 8PH     -0.047400
     25 CAL        10.4900    1.7000    6.8060 c3        1 8PH     -0.132400
     26 CAA        11.2220    3.0120    6.8990 c3        1 8PH     -0.064100
     27 H5          5.8240    1.2270    5.3470 ho        1 8PH      0.412000
     28 H6          5.0380    1.0800    2.8450 h1        1 8PH      0.067700
     29 H7          5.3770   -0.6110    2.2020 h1        1 8PH      0.067700
     30 H8          3.1340   -2.4780    3.4090 h3        1 8PH      0.011700
     31 H9          2.9590    1.4460    4.1610 h4        1 8PH      0.140000
     32 H10         1.7540    0.0420    6.1490 h4        1 8PH      0.107000
     33 H11         3.9120   -3.1400    6.3550 h1        1 8PH      0.023200
     34 H12         2.3200   -2.6780    7.1300 h1        1 8PH      0.023200
     35 H13         3.2540   -0.5720    7.9650 hc        1 8PH      0.065200
     36 H14         4.7670   -0.7840    6.9850 hc        1 8PH      0.065200
     37 H15         5.0990   -3.0230    8.2950 hc        1 8PH      0.015200
     38 H16         3.8050   -2.4380    9.4200 hc        1 8PH      0.015200
     39 H17         5.7710   -1.6630   10.4670 hc        1 8PH     -0.006300
     40 H18         5.2280   -0.2160    9.5420 hc        1 8PH     -0.006300
     41 H19         6.7900   -1.4140    7.5790 hc        1 8PH      0.094200
     42 H20         7.5880   -2.0870    9.0520 hc        1 8PH      0.094200
     43 H21         8.1590    0.1140    9.8970 hc        1 8PH     -0.004800
     44 H22         6.9830    0.9280    8.7960 hc        1 8PH     -0.004800
     45 H23         9.4600   -0.6560    7.8420 hc        1 8PH      0.089200
     46 H24         8.2680    0.2010    6.7840 hc        1 8PH      0.089200
     47 H25         8.8250    2.3690    8.0080 hc        1 8PH     -0.006300
     48 H26        10.1050    1.5000    8.9380 hc        1 8PH     -0.006300
     49 H27        11.2300    0.8590    6.7840 hc        1 8PH      0.103200
     50 H28         9.8930    1.6440    5.8340 hc        1 8PH      0.103200
     51 H29        11.9250    3.1250    6.0380 hc        1 8PH     -0.001300
     52 H30        11.8130    3.0880    7.8460 hc        1 8PH     -0.001300
     53 H31        10.4980    3.8630    6.8720 hc        1 8PH     -0.001300
@<TRIPOS>BOND
     1    1    2 1   
     2    2    3 1   
     3    2    4 1   
     4    2    5 1   
     5    5    6 1   
     6    5   10 1   
     7    5   11 1   
     8    6    7 1   
     9    6    8 1   
    10    6    9 1   
    11    7   13 1   
    12   10   27 1   
    13   11   12 1   
    14   11   28 1   
    15   11   29 1   
    16   12   13 1   
    17   12   14 1   
    18   13   16 1   
    19   13   30 1   
    20   14   15 2   
    21   14   31 1   
    22   15   16 1   
    23   15   32 1   
    24   16   17 1   
    25   17   18 1   
    26   17   33 1   
    27   17   34 1   
    28   18   19 1   
    29   18   35 1   
    30   18   36 1   
    31   19   20 1   
    32   19   37 1   
    33   19   38 1   
    34   20   21 1   
    35   20   39 1   
    36   20   40 1   
    37   21   22 1   
    38   21   41 1   
    39   21   42 1   
    40   22   23 1   
    41   22   43 1   
    42   22   44 1   
    43   23   24 1   
    44   23   45 1   
    45   23   46 1   
    46   24   25 1   
    47   24   47 1   
    48   24   48 1   
    49   25   26 1   
    50   25   49 1   
    51   25   50 1   
    52   26   51 1   
    53   26   52 1   
    54   26   53 1   
@<TRIPOS>SUBSTRUCTURE
     1 8PH         1 TEMP              0 ****  ****    0 ROOT
