@<TRIPOS>MOLECULE
molecule
   14    14     1     0     0
SMALL
bcc


@<TRIPOS>ATOM
      1 N1           0.0000     0.0000     0.0000 nb         1 8PJ      -0.775000
      2 C4           1.3230     0.0000     0.0000 ca         1 8PJ       0.713600
      3 C5          -0.6920     0.0010     1.1230 ca         1 8PJ       0.503200
      4 C1          -0.0550     0.0010     2.3480 ca         1 8PJ      -0.303300
      5 C2           1.3320     0.0020     2.3910 ca         1 8PJ      -0.002000
      6 C3           2.0300     0.0000     1.1950 ca         1 8PJ      -0.305500
      7 O1           1.9950    -0.0020    -1.1790 oh         1 8PJ      -0.561300
      8 N2           3.5100    -0.0010     1.1910 no         1 8PJ       0.303200
      9 O2           4.1230    -0.0010     2.2440 o          1 8PJ      -0.196000
     10 O3           4.1150    -0.0020     0.1340 o          1 8PJ      -0.196000
     11 H1          -1.7750     0.0010     1.0840 h4         1 8PJ       0.038100
     12 H2          -0.6320     0.0020     3.2650 ha         1 8PJ       0.158000
     13 H4           1.8570     0.0020     3.3390 ha         1 8PJ       0.178000
     14 H3           1.3790     0.0080    -1.8920 ho         1 8PJ       0.446000
@<TRIPOS>BOND
     1     3     4 ar
     2     3     1 ar
     3     4     5 ar
     4     1     2 ar
     5     5     6 ar
     6     2     6 ar
     7     2     7 1
     8     6     8 1
     9     8     9 1
    10     8    10 1
    11     3    11 1
    12     4    12 1
    13     5    13 1
    14     7    14 1
@<TRIPOS>SUBSTRUCTURE
     1 8PJ         1 TEMP              0 ****  ****    0 ROOT
