@<TRIPOS>MOLECULE
molecule
   33    33     1     0     0
SMALL
bcc


@<TRIPOS>ATOM
      1 O9           0.0000     0.0000     0.0000 oh         1 8PK      -0.641800
      2 C8           1.4290     0.0000     0.0000 c3         1 8PK       0.339900
      3 C10          1.9390     0.0000     1.4420 c3         1 8PK      -0.114100
      4 O4           1.9060    -1.1660    -0.6740 os         1 8PK      -0.386600
      5 C4           1.6940    -1.1480    -2.0870 c3         1 8PK       0.107100
      6 C5           1.3580    -2.5610    -2.5720 c3         1 8PK       0.150100
      7 C6           0.1210    -3.0740    -1.8310 c3         1 8PK      -0.082100
      8 O5           2.4630    -3.4280    -2.3120 os         1 8PK      -0.421600
      9 C3           2.9680    -0.6660    -2.7890 c3         1 8PK       0.131100
     10 O3           3.3300     0.6220    -2.2890 oh         1 8PK      -0.603800
     11 C2           4.0980    -1.6610    -2.5120 c3         1 8PK       0.116100
     12 O2           5.2720    -1.2590    -3.2220 os         1 8PK      -0.414600
     13 C7           6.4940    -1.6310    -2.5800 c3         1 8PK       0.126700
     14 C1           3.6690    -3.0530    -2.9800 c3         1 8PK       0.315900
     15 O1           3.4450    -3.0340    -4.3920 oh         1 8PK      -0.618800
     16 H1          -0.3140     0.8370     0.3000 ho         1 8PK       0.413000
     17 H2           1.7900     0.8850    -0.5110 h2         1 8PK       0.039700
     18 H3           3.0170    -0.1100     1.4440 hc         1 8PK       0.050033
     19 H4           1.4920    -0.8250     1.9840 hc         1 8PK       0.050033
     20 H5           1.6710     0.9340     1.9200 hc         1 8PK       0.050033
     21 H6           0.8760    -0.4810    -2.3270 h1         1 8PK       0.062700
     22 H7           1.1620    -2.5380    -3.6370 h1         1 8PK       0.056700
     23 H8          -0.1810    -4.0270    -2.2480 hc         1 8PK       0.051033
     24 H9          -0.6870    -2.3600    -1.9390 hc         1 8PK       0.051033
     25 H10          0.3550    -3.1970    -0.7800 hc         1 8PK       0.051033
     26 H11          2.7920    -0.6090    -3.8560 h1         1 8PK       0.064700
     27 H12          3.3680     1.2370    -3.0020 ho         1 8PK       0.407000
     28 H13          4.3030    -1.6860    -1.4480 h1         1 8PK       0.079700
     29 H14          7.3270    -1.4230    -3.2410 h1         1 8PK       0.031367
     30 H15          6.6090    -1.0640    -1.6650 h1         1 8PK       0.031367
     31 H16          6.4730    -2.6890    -2.3490 h1         1 8PK       0.031367
     32 H17          4.4480    -3.7680    -2.7440 h2         1 8PK       0.068700
     33 H18          3.6850    -3.8680    -4.7600 ho         1 8PK       0.410000
@<TRIPOS>BOND
     1    10     9 1   
     2    13    12 1   
     3     3     2 1   
     4     2     1 1   
     5     2     4 1   
     6    12    11 1   
     7     9    11 1   
     8     9     5 1   
     9    11    14 1   
    10     4     5 1   
    11     5     6 1   
    12    14    15 1   
    13    14     8 1   
    14     6     8 1   
    15     6     7 1   
    16     1    16 1   
    17     2    17 1   
    18     3    18 1   
    19     3    19 1   
    20     3    20 1   
    21     5    21 1   
    22     6    22 1   
    23     7    23 1   
    24     7    24 1   
    25     7    25 1   
    26     9    26 1   
    27    10    27 1   
    28    11    28 1   
    29    13    29 1   
    30    13    30 1   
    31    13    31 1   
    32    14    32 1   
    33    15    33 1   
@<TRIPOS>SUBSTRUCTURE
     1 8PK         1 TEMP              0 ****  ****    0 ROOT
