@<TRIPOS>MOLECULE
8PL
   31    31     1     0     0
SMALL
bcc


@<TRIPOS>ATOM
      1 C01          1.4650     0.0000     0.0000 c3         1 8PL      -0.054000
      2 C02          1.9680     0.0000     1.4210 ca         1 8PL      -0.036300
      3 C03          3.0630    -0.7700     1.7660 ca         1 8PL      -0.069500
      4 C04          3.5250    -0.7710     3.0680 ca         1 8PL      -0.139500
      5 C05          2.8910    -0.0000     4.0270 ca         1 8PL       0.064900
      6 C06          1.7930     0.7710     3.6820 ca         1 8PL      -0.139500
      7 C07          1.3360     0.7740     2.3760 ca         1 8PL      -0.069500
      8 F08          3.3410     0.0000     5.3010 f          1 8PL      -0.146900
      9 N09          0.0000     0.0000     0.0000 ns         1 8PL      -0.136900
     10 C10         -0.6750    -0.4920    -1.0580 c          1 8PL       0.577100
     11 O11         -0.0680    -0.9360    -2.0100 o          1 8PL      -0.665100
     12 C12         -2.1810    -0.4920    -1.0580 c3         1 8PL      -0.107700
     13 C13         -2.6920    -1.1020    -2.3650 c3         1 8PL       0.133700
     14 S14         -4.4990    -0.9670    -2.4290 sh         1 8PL      -0.445900
     15 C15         -2.6910    -1.3210     0.1240 c3         1 8PL      -0.010100
     16 C16          1.9670     1.2310    -0.7110 c          1 8PL       0.978600
     17 O17          1.1810     2.0270    -1.1700 o          1 8PL      -0.878300
     18 O18          3.2870     1.4430    -0.8330 o          1 8PL      -0.878300
     19 H1           1.8260    -0.8840    -0.5110 h1         1 8PL       0.060700
     20 H2           3.5590    -1.3730     1.0150 ha         1 8PL       0.114500
     21 H3           4.3830    -1.3740     3.3380 ha         1 8PL       0.104500
     22 H4           1.2980     1.3760     4.4310 ha         1 8PL       0.104500
     23 H5           0.4780     1.3760     2.1050 ha         1 8PL       0.114500
     24 H6          -0.5000     0.3530     0.7920 hn         1 8PL       0.161500
     25 H7          -2.5430     0.5250    -0.9680 hc         1 8PL       0.056700
     26 H8          -2.4050    -2.1460    -2.4120 h1         1 8PL       0.049200
     27 H9          -2.2590    -0.5710    -3.2040 h1         1 8PL       0.049200
     28 H10         -4.9120    -1.1410    -3.6790 hs         1 8PL       0.176800
     29 H11         -3.3820    -2.0740    -0.2340 hc         1 8PL       0.010367
     30 H12         -1.8540    -1.8030     0.6150 hc         1 8PL       0.010367
     31 H13         -3.1980    -0.6720     0.8280 hc         1 8PL       0.010367
@<TRIPOS>BOND
     1     1     2 1   
     2     1     9 1   
     3     1    16 1   
     4     1    19 1   
     5     2     3 ar  
     6     2     7 ar  
     7     3     4 ar  
     8     3    20 1   
     9     4     5 ar  
    10     4    21 1   
    11     5     6 ar  
    12     5     8 1   
    13     6     7 ar  
    14     6    22 1   
    15     7    23 1   
    16     9    10 1   
    17     9    24 1   
    18    10    11 2   
    19    10    12 1   
    20    12    13 1   
    21    12    15 1   
    22    12    25 1   
    23    13    14 1   
    24    13    26 1   
    25    13    27 1   
    26    14    28 1   
    27    15    29 1   
    28    15    30 1   
    29    15    31 1   
    30    16    17 1   
    31    16    18 1   
@<TRIPOS>SUBSTRUCTURE
     1 8PL         1 TEMP              0 ****  ****    0 ROOT
