@<TRIPOS>MOLECULE
molecule
   31    31     1     0     0
SMALL
bcc


@<TRIPOS>ATOM
      1 C01          1.4650     0.0000     0.0000 c3         1 8PL       0.044000
      2 C02          1.9680     0.0000     1.4210 ca         1 8PL      -0.042300
      3 C03          3.0630    -0.7700     1.7660 ca         1 8PL      -0.095500
      4 C04          3.5250    -0.7710     3.0680 ca         1 8PL      -0.171500
      5 C05          2.8910    -0.0000     4.0270 ca         1 8PL       0.097900
      6 C06          1.7930     0.7710     3.6820 ca         1 8PL      -0.171500
      7 C07          1.3360     0.7740     2.3760 ca         1 8PL      -0.095500
      8 F08          3.3410     0.0000     5.3010 f          1 8PL      -0.164900
      9 N09          0.0000     0.0000     0.0000 ns         1 8PL      -0.544900
     10 C10         -0.6750    -0.4920    -1.0580 c          1 8PL       0.672100
     11 O11         -0.0680    -0.9360    -2.0100 o          1 8PL      -0.622100
     12 C12         -2.1810    -0.4920    -1.0580 c3         1 8PL      -0.137700
     13 C13         -2.6920    -1.1020    -2.3650 c3         1 8PL       0.076700
     14 S14         -4.4990    -0.9670    -2.4290 sh         1 8PL      -0.469900
     15 C15         -2.6910    -1.3210     0.1240 c3         1 8PL      -0.095100
     16 C16          1.9670     1.2310    -0.7110 c          1 8PL       0.890600
     17 O17          1.1810     2.0270    -1.1700 o          1 8PL      -0.826300
     18 O18          3.2870     1.4430    -0.8330 o          1 8PL      -0.826300
     19 H1           1.8260    -0.8840    -0.5110 h1         1 8PL       0.081700
     20 H2           3.5590    -1.3730     1.0150 ha         1 8PL       0.140500
     21 H3           4.3830    -1.3740     3.3380 ha         1 8PL       0.127500
     22 H4           1.2980     1.3760     4.4310 ha         1 8PL       0.127500
     23 H5           0.4780     1.3760     2.1050 ha         1 8PL       0.140500
     24 H6          -0.5000     0.3530     0.7920 hn         1 8PL       0.301500
     25 H7          -2.5430     0.5250    -0.9680 hc         1 8PL       0.083700
     26 H8          -2.4050    -2.1460    -2.4120 h1         1 8PL       0.074200
     27 H9          -2.2590    -0.5710    -3.2040 h1         1 8PL       0.074200
     28 H10         -4.9120    -1.1410    -3.6790 hs         1 8PL       0.211800
     29 H11         -3.3820    -2.0740    -0.2340 hc         1 8PL       0.040367
     30 H12         -1.8540    -1.8030     0.6150 hc         1 8PL       0.040367
     31 H13         -3.1980    -0.6720     0.8280 hc         1 8PL       0.040367
@<TRIPOS>BOND
     1    15    12 1   
     2    12    10 1   
     3    12    13 1   
     4     8     5 1   
     5    11    10 2   
     6     6     5 ar  
     7     6     7 ar  
     8    10     9 1   
     9     5     4 ar  
    10     7     2 ar  
    11     4     3 ar  
    12     9     1 1   
    13     2     3 ar  
    14     2     1 1   
    15    13    14 1   
    16     1    16 1   
    17    16    17 1   
    18    16    18 1   
    19     1    19 1   
    20     3    20 1   
    21     4    21 1   
    22     6    22 1   
    23     7    23 1   
    24     9    24 1   
    25    12    25 1   
    26    13    26 1   
    27    13    27 1   
    28    14    28 1   
    29    15    29 1   
    30    15    30 1   
    31    15    31 1   
@<TRIPOS>SUBSTRUCTURE
     1 8PL         1 TEMP              0 ****  ****    0 ROOT
