@<TRIPOS>MOLECULE
molecule
   54    55     1     0     0
SMALL
bcc


@<TRIPOS>ATOM
      1 C2           0.0000     0.0000     0.0000 ca         1 8PM      -0.283500
      2 C5           1.4730     0.0010     2.4010 ca         1 8PM       0.205600
      3 C6           2.0880     0.0000     1.1850 ca         1 8PM      -0.205000
      4 C7           1.3560     0.0000     0.0000 ca         1 8PM       0.016000
      5 C16         -1.4700    -2.7070    -3.6730 c          1 8PM       0.640100
      6 C18         -1.3990    -3.8010    -5.8480 c3         1 8PM       0.112000
      7 C19         -0.7340    -5.0230    -6.4880 c3         1 8PM      -0.101400
      8 C20         -1.1480    -5.1170    -7.9580 c3         1 8PM      -0.078400
      9 C21         -3.0580    -1.5470    -1.0770 c3         1 8PM       0.228100
     10 C25         -0.4840    -6.3380    -8.5970 c3         1 8PM      -0.081400
     11 C26         -0.8970    -6.4330   -10.0670 c3         1 8PM      -0.083400
     12 C27         -0.2330    -7.6540   -10.7070 c3         1 8PM      -0.092100
     13 S1          -0.8810    -0.0070    -1.5260 sy         1 8PM       1.439200
     14 C3          -0.7100    -0.0000     1.2280 ca         1 8PM       0.000000
     15 C4           0.0510    -0.0000     2.4750 ca         1 8PM      -0.072000
     16 N8           2.2340     0.0010     3.5690 nh         1 8PM      -0.616000
     17 C9           3.0260    -1.2310     3.6820 c3         1 8PM       0.159100
     18 C10          3.0950     1.1880     3.6360 c3         1 8PM       0.159100
     19 N11         -0.7640    -0.0010     3.5150 nc         1 8PM      -0.348500
     20 N12         -2.0090    -0.0010     1.4800 nc         1 8PM      -0.399500
     21 S13         -2.2380    -0.0010     3.0180 ss         1 8PM       0.760000
     22 N14         -1.6990    -1.4440    -1.6130 n3         1 8PM      -0.791500
     23 C15         -1.0620    -2.6130    -2.2240 c3         1 8PM       0.167800
     24 N17         -1.0020    -3.7110    -4.4400 ns         1 8PM      -0.589900
     25 O22         -1.8670     1.0110    -1.4240 o          1 8PM      -0.623800
     26 O23          0.0980    -0.0400    -2.5540 o          1 8PM      -0.623800
     27 O24         -2.2180    -1.8790    -4.1470 o          1 8PM      -0.589100
     28 H1           3.1700    -0.0000     1.1390 ha         1 8PM       0.145000
     29 H2           1.8830    -0.0000    -0.9460 ha         1 8PM       0.162000
     30 H3          -1.0870    -2.9050    -6.3700 h1         1 8PM       0.055700
     31 H4          -2.4760    -3.9010    -5.9140 h1         1 8PM       0.055700
     32 H5           0.3430    -4.9230    -6.4220 hc         1 8PM       0.044200
     33 H6          -1.0470    -5.9190    -5.9660 hc         1 8PM       0.044200
     34 H7          -2.2250    -5.2160    -8.0240 hc         1 8PM       0.046700
     35 H8          -0.8350    -4.2210    -8.4800 hc         1 8PM       0.046700
     36 H9          -3.0370    -2.0940    -0.1420 h1         1 8PM       0.050033
     37 H10         -3.4550    -0.5540    -0.9060 h1         1 8PM       0.050033
     38 H11         -3.6880    -2.0700    -1.7870 h1         1 8PM       0.050033
     39 H12          0.5930    -6.2390    -8.5300 hc         1 8PM       0.041200
     40 H13         -0.7970    -7.2340    -8.0750 hc         1 8PM       0.041200
     41 H14         -1.9740    -6.5320   -10.1340 hc         1 8PM       0.041700
     42 H15         -0.5840    -5.5370   -10.5890 hc         1 8PM       0.041700
     43 H16         -0.5210    -7.7180   -11.7490 hc         1 8PM       0.033033
     44 H17          0.8440    -7.5580   -10.6350 hc         1 8PM       0.033033
     45 H18         -0.5500    -8.5510   -10.1890 hc         1 8PM       0.033033
     46 H19          2.4130    -2.0810     3.4070 h1         1 8PM       0.039700
     47 H20          3.8810    -1.1730     3.0180 h1         1 8PM       0.039700
     48 H21          3.3690    -1.3480     4.7030 h1         1 8PM       0.039700
     49 H22          3.4260     1.3360     4.6570 h1         1 8PM       0.039700
     50 H23          2.5390     2.0580     3.3080 h1         1 8PM       0.039700
     51 H24          3.9560     1.0470     2.9940 h1         1 8PM       0.039700
     52 H25         -1.3750    -3.5100    -1.7020 h1         1 8PM       0.066200
     53 H26          0.0150    -2.5140    -2.1580 h1         1 8PM       0.066200
     54 H27         -0.4160    -4.4160    -4.0390 hn         1 8PM       0.308500
@<TRIPOS>BOND
     1     9    22 1
     2    27     5 2
     3    22    23 1
     4    22    13 1
     5     5    24 1
     6     5    23 1
     7     6    24 1
     8     6     7 1
     9     4     3 ar
    10     4     1 ar
    11    26    13 2
    12     3     2 ar
    13    13     1 1
    14    13    25 2
    15     8     7 1
    16     8    10 1
    17     1    14 ar
    18    12    11 1
    19    17    16 1
    20     2    16 1
    21     2    15 ar
    22    16    18 1
    23    14    15 ar
    24    14    20 2
    25    15    19 2
    26    20    21 1
    27    10    11 1
    28    19    21 1
    29     3    28 1
    30     4    29 1
    31     6    30 1
    32     6    31 1
    33     7    32 1
    34     7    33 1
    35     8    34 1
    36     8    35 1
    37     9    36 1
    38     9    37 1
    39     9    38 1
    40    10    39 1
    41    10    40 1
    42    11    41 1
    43    11    42 1
    44    12    43 1
    45    12    44 1
    46    12    45 1
    47    17    46 1
    48    17    47 1
    49    17    48 1
    50    18    49 1
    51    18    50 1
    52    18    51 1
    53    23    52 1
    54    23    53 1
    55    24    54 1
@<TRIPOS>SUBSTRUCTURE
     1 8PM         1 TEMP              0 ****  ****    0 ROOT
