@<TRIPOS>MOLECULE
8PM
   54    55     1     0     0
SMALL
bcc


@<TRIPOS>ATOM
      1 C2           0.0000     0.0000     0.0000 ca         1 8PM      -0.134500
      2 C5           1.4730     0.0010     2.4010 ca         1 8PM       0.122600
      3 C6           2.0880     0.0000     1.1850 ca         1 8PM      -0.182000
      4 C7           1.3560     0.0000     0.0000 ca         1 8PM       0.051000
      5 C16         -1.4700    -2.7070    -3.6730 c          1 8PM       0.551100
      6 C18         -1.3990    -3.8010    -5.8480 c3         1 8PM       0.051000
      7 C19         -0.7340    -5.0230    -6.4880 c3         1 8PM      -0.042400
      8 C20         -1.1480    -5.1170    -7.9580 c3         1 8PM      -0.022400
      9 C21         -3.0580    -1.5470    -1.0770 c3         1 8PM       0.258100
     10 C25         -0.4840    -6.3380    -8.5970 c3         1 8PM      -0.029400
     11 C26         -0.8970    -6.4330   -10.0670 c3         1 8PM      -0.027400
     12 C27         -0.2330    -7.6540   -10.7070 c3         1 8PM       0.006900
     13 S1          -0.8810    -0.0070    -1.5260 sy         1 8PM       1.060200
     14 C3          -0.7100    -0.0000     1.2280 ca         1 8PM      -0.017000
     15 C4           0.0510    -0.0000     2.4750 ca         1 8PM      -0.105000
     16 N8           2.2340     0.0010     3.5690 nh         1 8PM      -0.403000
     17 C9           3.0260    -1.2310     3.6820 c3         1 8PM       0.183100
     18 C10          3.0950     1.1880     3.6360 c3         1 8PM       0.183100
     19 N11         -0.7640    -0.0010     3.5150 nc         1 8PM      -0.196500
     20 N12         -2.0090    -0.0010     1.4800 nc         1 8PM      -0.242500
     21 S13         -2.2380    -0.0010     3.0180 ss         1 8PM       0.516000
     22 N14         -1.6990    -1.4440    -1.6130 n3         1 8PM      -0.492500
     23 C15         -1.0620    -2.6130    -2.2240 c3         1 8PM       0.171800
     24 N17         -1.0020    -3.7110    -4.4400 ns         1 8PM      -0.202900
     25 O22         -1.8670     1.0110    -1.4240 o          1 8PM      -0.576300
     26 O23          0.0980    -0.0400    -2.5540 o          1 8PM      -0.576300
     27 O24         -2.2180    -1.8790    -4.1470 o          1 8PM      -0.629100
     28 H1           3.1700    -0.0000     1.1390 ha         1 8PM       0.122000
     29 H2           1.8830    -0.0000    -0.9460 ha         1 8PM       0.131000
     30 H3          -1.0870    -2.9050    -6.3700 h1         1 8PM       0.028700
     31 H4          -2.4760    -3.9010    -5.9140 h1         1 8PM       0.028700
     32 H5           0.3430    -4.9230    -6.4220 hc         1 8PM       0.015200
     33 H6          -1.0470    -5.9190    -5.9660 hc         1 8PM       0.015200
     34 H7          -2.2250    -5.2160    -8.0240 hc         1 8PM       0.018700
     35 H8          -0.8350    -4.2210    -8.4800 hc         1 8PM       0.018700
     36 H9          -3.0370    -2.0940    -0.1420 h1         1 8PM       0.012367
     37 H10         -3.4550    -0.5540    -0.9060 h1         1 8PM       0.012367
     38 H11         -3.6880    -2.0700    -1.7870 h1         1 8PM       0.012367
     39 H12          0.5930    -6.2390    -8.5300 hc         1 8PM       0.014200
     40 H13         -0.7970    -7.2340    -8.0750 hc         1 8PM       0.014200
     41 H14         -1.9740    -6.5320   -10.1340 hc         1 8PM       0.013200
     42 H15         -0.5840    -5.5370   -10.5890 hc         1 8PM       0.013200
     43 H16         -0.5210    -7.7180   -11.7490 hc         1 8PM       0.000367
     44 H17          0.8440    -7.5580   -10.6350 hc         1 8PM       0.000367
     45 H18         -0.5500    -8.5510   -10.1890 hc         1 8PM       0.000367
     46 H19          2.4130    -2.0810     3.4070 h1         1 8PM       0.006033
     47 H20          3.8810    -1.1730     3.0180 h1         1 8PM       0.006033
     48 H21          3.3690    -1.3480     4.7030 h1         1 8PM       0.006033
     49 H22          3.4260     1.3360     4.6570 h1         1 8PM       0.006033
     50 H23          2.5390     2.0580     3.3080 h1         1 8PM       0.006033
     51 H24          3.9560     1.0470     2.9940 h1         1 8PM       0.006033
     52 H25         -1.3750    -3.5100    -1.7020 h1         1 8PM       0.025700
     53 H26          0.0150    -2.5140    -2.1580 h1         1 8PM       0.025700
     54 H27         -0.4160    -4.4160    -4.0390 hn         1 8PM       0.168500
@<TRIPOS>BOND
     1     1     4 ar  
     2     1    13 1   
     3     1    14 ar  
     4     2     3 ar  
     5     2    15 ar  
     6     2    16 1   
     7     3     4 ar  
     8     3    28 1   
     9     4    29 1   
    10     5    23 1   
    11     5    24 1   
    12     5    27 2   
    13     6     7 1   
    14     6    24 1   
    15     6    30 1   
    16     6    31 1   
    17     7     8 1   
    18     7    32 1   
    19     7    33 1   
    20     8    10 1   
    21     8    34 1   
    22     8    35 1   
    23     9    22 1   
    24     9    36 1   
    25     9    37 1   
    26     9    38 1   
    27    10    11 1   
    28    10    39 1   
    29    10    40 1   
    30    11    12 1   
    31    11    41 1   
    32    11    42 1   
    33    12    43 1   
    34    12    44 1   
    35    12    45 1   
    36    13    22 1   
    37    13    25 2   
    38    13    26 2   
    39    14    15 ar  
    40    14    20 2   
    41    15    19 2   
    42    16    17 1   
    43    16    18 1   
    44    17    46 1   
    45    17    47 1   
    46    17    48 1   
    47    18    49 1   
    48    18    50 1   
    49    18    51 1   
    50    19    21 1   
    51    20    21 1   
    52    22    23 1   
    53    23    52 1   
    54    23    53 1   
    55    24    54 1   
@<TRIPOS>SUBSTRUCTURE
     1 8PM         1 TEMP              0 ****  ****    0 ROOT
