@<TRIPOS>MOLECULE
8PO
   32    32     1     0     0
SMALL
bcc


@<TRIPOS>ATOM
      1 C13          0.0000     0.0000     0.0000 c3         1 8PO       0.134700
      2 O18          4.3150    -1.6600     4.8150 o          1 8PO      -0.880800
      3 C12          1.5310     0.0000     0.0000 c3         1 8PO      -0.108700
      4 C10          2.0330     0.0000     1.4210 c          1 8PO       0.576100
      5 C01          3.8460    -0.0000     3.0500 c3         1 8PO      -0.053000
      6 C02          5.2280     0.6000     3.0930 ca         1 8PO      -0.039300
      7 C03          6.1380     0.3110     2.0950 ca         1 8PO      -0.076500
      8 C04          7.4040     0.8640     2.1300 ca         1 8PO      -0.143500
      9 C05          7.7590     1.7100     3.1690 ca         1 8PO       0.086100
     10 C06          6.8440     1.9990     4.1710 ca         1 8PO      -0.143500
     11 C07          5.5800     1.4440     4.1310 ca         1 8PO      -0.076500
     12 O08          9.0040     2.2570     3.2070 oh         1 8PO      -0.515100
     13 N09          3.3570    -0.0000     1.6680 ns         1 8PO      -0.134900
     14 O11          1.2440    -0.0000     2.3420 o          1 8PO      -0.667100
     15 S14         -0.6030    -0.1490    -1.7040 sh         1 8PO      -0.446900
     16 C15          2.0410     1.2490    -0.7210 c3         1 8PO      -0.010100
     17 C16          3.8960    -1.4160     3.5640 c          1 8PO       0.980600
     18 O17          3.5590    -2.3300     2.8510 o          1 8PO      -0.880800
     19 H1          -0.3610    -0.8370     0.5860 h1         1 8PO       0.049200
     20 H2          -0.3610     0.9260     0.4310 h1         1 8PO       0.049200
     21 H4           1.8920    -0.8850    -0.5110 hc         1 8PO       0.055700
     22 H5           3.1780     0.5860     3.6690 h1         1 8PO       0.060700
     23 H6           5.8590    -0.3500     1.2830 ha         1 8PO       0.112000
     24 H7           8.1170     0.6370     1.3470 ha         1 8PO       0.099500
     25 H8           7.1200     2.6600     4.9840 ha         1 8PO       0.099500
     26 H9           4.8640     1.6690     4.9120 ha         1 8PO       0.112000
     27 H10          9.5800     1.6920     3.6950 ho         1 8PO       0.392000
     28 H11          4.0080     0.0070     0.9070 hn         1 8PO       0.162500
     29 H12         -1.8820    -0.5060    -1.6910 hs         1 8PO       0.175800
     30 H13          2.5550     1.8890    -0.0150 hc         1 8PO       0.010367
     31 H14          2.7250     0.9570    -1.5090 hc         1 8PO       0.010367
     32 H15          1.2040     1.7850    -1.1510 hc         1 8PO       0.010367
@<TRIPOS>BOND
     1     1     3 1   
     2     1    15 1   
     3     1    19 1   
     4     1    20 1   
     5     2    17 1   
     6     3     4 1   
     7     3    16 1   
     8     3    21 1   
     9     4    13 1   
    10     4    14 2   
    11     5     6 1   
    12     5    13 1   
    13     5    17 1   
    14     5    22 1   
    15     6     7 ar  
    16     6    11 ar  
    17     7     8 ar  
    18     7    23 1   
    19     8     9 ar  
    20     8    24 1   
    21     9    10 ar  
    22     9    12 1   
    23    10    11 ar  
    24    10    25 1   
    25    11    26 1   
    26    12    27 1   
    27    13    28 1   
    28    15    29 1   
    29    16    30 1   
    30    16    31 1   
    31    16    32 1   
    32    17    18 1   
@<TRIPOS>SUBSTRUCTURE
     1 8PO         1 TEMP              0 ****  ****    0 ROOT
