@<TRIPOS>MOLECULE
molecule
   32    32     1     0     0
SMALL
bcc


@<TRIPOS>ATOM
      1 C13          0.0000     0.0000     0.0000 c3         1 8PO       0.077700
      2 O18          4.3150    -1.6600     4.8150 o          1 8PO      -0.828300
      3 C12          1.5310     0.0000     0.0000 c3         1 8PO      -0.137700
      4 C10          2.0330     0.0000     1.4210 c          1 8PO       0.672100
      5 C01          3.8460    -0.0000     3.0500 c3         1 8PO       0.042000
      6 C02          5.2280     0.6000     3.0930 ca         1 8PO      -0.034300
      7 C03          6.1380     0.3110     2.0950 ca         1 8PO      -0.108000
      8 C04          7.4040     0.8640     2.1300 ca         1 8PO      -0.156500
      9 C05          7.7590     1.7100     3.1690 ca         1 8PO       0.069100
     10 C06          6.8440     1.9990     4.1710 ca         1 8PO      -0.156500
     11 C07          5.5800     1.4440     4.1310 ca         1 8PO      -0.108000
     12 O08          9.0040     2.2570     3.2070 oh         1 8PO      -0.537100
     13 N09          3.3570    -0.0000     1.6680 ns         1 8PO      -0.543900
     14 O11          1.2440    -0.0000     2.3420 o          1 8PO      -0.623100
     15 S14         -0.6030    -0.1490    -1.7040 sh         1 8PO      -0.470900
     16 C15          2.0410     1.2490    -0.7210 c3         1 8PO      -0.095100
     17 C16          3.8960    -1.4160     3.5640 c          1 8PO       0.891600
     18 O17          3.5590    -2.3300     2.8510 o          1 8PO      -0.828300
     19 H1          -0.3610    -0.8370     0.5860 h1         1 8PO       0.074200
     20 H2          -0.3610     0.9260     0.4310 h1         1 8PO       0.074200
     21 H4           1.8920    -0.8850    -0.5110 hc         1 8PO       0.082700
     22 H5           3.1780     0.5860     3.6690 h1         1 8PO       0.081700
     23 H6           5.8590    -0.3500     1.2830 ha         1 8PO       0.137000
     24 H7           8.1170     0.6370     1.3470 ha         1 8PO       0.122500
     25 H8           7.1200     2.6600     4.9840 ha         1 8PO       0.122500
     26 H9           4.8640     1.6690     4.9120 ha         1 8PO       0.137000
     27 H10          9.5800     1.6920     3.6950 ho         1 8PO       0.407000
     28 H11          4.0080     0.0070     0.9070 hn         1 8PO       0.302500
     29 H12         -1.8820    -0.5060    -1.6910 hs         1 8PO       0.210800
     30 H13          2.5550     1.8890    -0.0150 hc         1 8PO       0.040367
     31 H14          2.7250     0.9570    -1.5090 hc         1 8PO       0.040367
     32 H15          1.2040     1.7850    -1.1510 hc         1 8PO       0.040367
@<TRIPOS>BOND
     1    12     9 1   
     2     8     9 ar  
     3     8     7 ar  
     4     9    10 ar  
     5     7     6 ar  
     6    10    11 ar  
     7     6    11 ar  
     8     6     5 1   
     9     5    17 1   
    10     5    13 1   
    11    14     4 2   
    12    18    17 1   
    13    17     2 1   
    14    13     4 1   
    15     4     3 1   
    16    16     3 1   
    17     3     1 1   
    18     1    15 1   
    19     1    19 1   
    20     1    20 1   
    21     3    21 1   
    22     5    22 1   
    23     7    23 1   
    24     8    24 1   
    25    10    25 1   
    26    11    26 1   
    27    12    27 1   
    28    13    28 1   
    29    15    29 1   
    30    16    30 1   
    31    16    31 1   
    32    16    32 1   
@<TRIPOS>SUBSTRUCTURE
     1 8PO         1 TEMP              0 ****  ****    0 ROOT
