@<TRIPOS>MOLECULE
molecule
  117   117     1     0     0
SMALL
bcc


@<TRIPOS>ATOM
      1 C1           0.0000     0.0000     0.0000 ca         1 8PP       0.120100
      2 C2           1.3870     0.0000     0.0000 ca         1 8PP      -0.051300
      3 C3           2.0760     0.0000     1.1960 ca         1 8PP      -0.092000
      4 C4           1.3860    -0.0080     2.3940 ca         1 8PP      -0.148000
      5 O           -0.6810     0.0010    -1.1760 oh         1 8PP      -0.512100
      6 C5           0.0030    -0.0140     2.3970 ca         1 8PP      -0.106000
      7 C6          -0.6910    -0.0130     1.2020 ca         1 8PP      -0.192000
      8 C7           2.1410     0.0090    -1.3050 c3         1 8PP      -0.038900
      9 C8           2.3990    -1.4090    -1.7450 c2         1 8PP      -0.488200
     10 C9           2.0270    -1.8020    -2.9370 c2         1 8PP       0.037600
     11 C10          1.4460    -0.8100    -3.9110 c3         1 8PP      -0.130900
     12 C11          2.1770    -3.2490    -3.3350 c3         1 8PP      -0.004200
     13 C12          0.9060    -4.0150    -2.9630 c3         1 8PP      -0.076200
     14 C13          1.0560    -5.4610    -3.3610 c2         1 8PP      -0.518200
     15 C14          0.8970    -6.4060    -2.4680 c2         1 8PP       0.036600
     16 C15          0.4420    -6.0560    -1.0750 c3         1 8PP      -0.132900
     17 C16          1.1680    -7.8420    -2.8340 c3         1 8PP      -0.005200
     18 C17          2.6330    -8.1740    -2.5490 c3         1 8PP      -0.073200
     19 C18          2.9030    -9.6100    -2.9150 c2         1 8PP      -0.526200
     20 C19          3.8720    -9.9040    -3.7460 c2         1 8PP       0.046600
     21 C20          4.7940    -8.8190    -4.2390 c3         1 8PP      -0.129900
     22 C21          4.0650   -11.3250    -4.2070 c3         1 8PP      -0.071200
     23 C22          3.2470   -11.5640    -5.4790 c3         1 8PP      -0.084200
     24 C23          3.4400   -12.9840    -5.9400 c2         1 8PP      -0.518200
     25 C24          2.4020   -13.7640    -6.1120 c2         1 8PP       0.025600
     26 C25          1.0270   -13.2810    -5.7320 c3         1 8PP      -0.130900
     27 C26          2.5840   -15.1450    -6.6880 c3         1 8PP      -0.003200
     28 C27          2.8250   -16.1430    -5.5550 c3         1 8PP      -0.080200
     29 C28          3.0060   -17.5230    -6.1330 c2         1 8PP      -0.522200
     30 C29          4.0880   -18.2090    -5.8630 c2         1 8PP       0.041600
     31 C30          5.0990   -17.6670    -4.8860 c3         1 8PP      -0.129900
     32 C31          4.3210   -19.5410    -6.5280 c3         1 8PP      -0.066200
     33 C32          5.0900   -19.3320    -7.8330 c3         1 8PP      -0.083200
     34 C33          5.3240   -20.6630    -8.4990 c2         1 8PP      -0.549200
     35 C34          4.9380   -20.8550    -9.7350 c2         1 8PP       0.022600
     36 C35          4.3610   -19.7110   -10.5300 c3         1 8PP      -0.136900
     37 C36          5.0680   -22.2180   -10.3630 c3         1 8PP      -0.036200
     38 C37          3.7910   -23.0210   -10.1090 c3         1 8PP      -0.044200
     39 C38          3.9220   -24.3860   -10.7360 c2         1 8PP      -0.182200
     40 C39          3.7400   -25.4600   -10.0120 c2         1 8PP      -0.125400
     41 C40          3.9890   -26.8220   -10.6070 c3         1 8PP      -0.035200
     42 C41          3.2800   -25.3360    -8.5820 c3         1 8PP      -0.053900
     43 C42          5.4480   -27.2210   -10.3730 c3         1 8PP      -0.045200
     44 C43          5.6970   -28.5830   -10.9680 c2         1 8PP      -0.183200
     45 C44          6.6670   -28.7520   -11.8300 c2         1 8PP      -0.132400
     46 C45          6.8410   -30.0820   -12.5180 c3         1 8PP      -0.051400
     47 C46          7.6110   -27.6170   -12.1370 c3         1 8PP      -0.051400
     48 H3           3.1600     0.0020     1.1960 ha         1 8PP       0.137000
     49 H4           1.9280    -0.0080     3.3310 ha         1 8PP       0.131000
     50 HO          -1.3890     0.6220    -1.1290 ho         1 8PP       0.417000
     51 H5          -0.5360    -0.0220     3.3360 ha         1 8PP       0.130000
     52 H6          -1.7740    -0.0160     1.2050 ha         1 8PP       0.132000
     53 H71          1.5530     0.5190    -2.0580 hc         1 8PP       0.039200
     54 H72          3.0850     0.5230    -1.1730 hc         1 8PP       0.039200
     55 H8           3.0560    -0.5930    -2.0200 ha         1 8PP       0.316000
     56 H101         1.3840    -1.2630    -4.8930 hc         1 8PP       0.053033
     57 H102         2.0820     0.0650    -3.9570 hc         1 8PP       0.053033
     58 H103         0.4550    -0.5200    -3.5840 hc         1 8PP       0.053033
     59 H111         2.3390    -3.3150    -4.4040 hc         1 8PP       0.065700
     60 H112         3.0240    -3.6800    -2.8140 hc         1 8PP       0.065700
     61 H121         0.7440    -3.9490    -1.8940 hc         1 8PP       0.040700
     62 H122         0.0590    -3.5830    -3.4840 hc         1 8PP       0.040700
     63 H13          0.0870    -4.9830    -3.2960 ha         1 8PP       0.325000
     64 H151        -0.4820    -5.4940    -1.1270 hc         1 8PP       0.054033
     65 H152         0.2800    -6.9650    -0.5090 hc         1 8PP       0.054033
     66 H153         1.2020    -5.4570    -0.5870 hc         1 8PP       0.054033
     67 H161         0.9620    -7.9910    -3.8870 hc         1 8PP       0.067200
     68 H162         0.5290    -8.4910    -2.2470 hc         1 8PP       0.067200
     69 H171         3.2710    -7.5250    -3.1370 hc         1 8PP       0.039700
     70 H172         2.8380    -8.0250    -1.4960 hc         1 8PP       0.039700
     71 H18          3.4700    -9.0990    -2.1470 ha         1 8PP       0.328000
     72 H201         5.2000    -8.2780    -3.3930 hc         1 8PP       0.055700
     73 H202         4.2420    -8.1360    -4.8730 hc         1 8PP       0.055700
     74 H203         5.6040    -9.2640    -4.8060 hc         1 8PP       0.055700
     75 H211         3.7330   -12.0050    -3.4320 hc         1 8PP       0.064200
     76 H212         5.1140   -11.4980    -4.4150 hc         1 8PP       0.064200
     77 H221         3.5790   -10.8840    -6.2540 hc         1 8PP       0.067700
     78 H222         2.1980   -11.3910    -5.2710 hc         1 8PP       0.067700
     79 H23          3.3090   -12.7340    -4.8940 ha         1 8PP       0.340000
     80 H251         0.8000   -12.3730    -6.2770 hc         1 8PP       0.053033
     81 H252         0.2960   -14.0410    -5.9770 hc         1 8PP       0.053033
     82 H253         0.9960   -13.0800    -4.6670 hc         1 8PP       0.053033
     83 H261         3.4340   -15.1470    -7.3590 hc         1 8PP       0.072200
     84 H262         1.6920   -15.4280    -7.2350 hc         1 8PP       0.072200
     85 H271         3.7160   -15.8600    -5.0080 hc         1 8PP       0.034700
     86 H272         1.9740   -16.1410    -4.8850 hc         1 8PP       0.034700
     87 H28          2.6390   -17.3640    -5.1260 ha         1 8PP       0.328000
     88 H301         4.6060   -17.4250    -3.9520 hc         1 8PP       0.055033
     89 H302         5.5550   -16.7740    -5.2960 hc         1 8PP       0.055033
     90 H303         5.8640   -18.4130    -4.7070 hc         1 8PP       0.055033
     91 H311         3.3690   -20.0100    -6.7410 hc         1 8PP       0.068200
     92 H312         4.8970   -20.1780    -5.8670 hc         1 8PP       0.068200
     93 H321         6.0430   -18.8630    -7.6190 hc         1 8PP       0.070700
     94 H322         4.5150   -18.6940    -8.4920 hc         1 8PP       0.070700
     95 H33          4.3740   -20.2650    -8.1630 ha         1 8PP       0.370000
     96 H351         4.2560   -20.0090   -11.5660 hc         1 8PP       0.051033
     97 H352         5.0230   -18.8560   -10.4650 hc         1 8PP       0.051033
     98 H353         3.3900   -19.4470   -10.1300 hc         1 8PP       0.051033
     99 H361         5.9130   -22.7370    -9.9280 hc         1 8PP       0.060200
    100 H362         5.2200   -22.1120   -11.4300 hc         1 8PP       0.060200
    101 H371         2.9450   -22.5030   -10.5450 hc         1 8PP       0.050700
    102 H372         3.6370   -23.1280    -9.0420 hc         1 8PP       0.050700
    103 H38          4.2510   -24.4770   -11.7640 ha         1 8PP       0.123000
    104 H401         3.7890   -26.7930   -11.6710 hc         1 8PP       0.046200
    105 H402         3.3360   -27.5460   -10.1360 hc         1 8PP       0.046200
    106 H411         3.1050   -26.3230    -8.1720 hc         1 8PP       0.042700
    107 H412         2.3620   -24.7620    -8.5460 hc         1 8PP       0.042700
    108 H413         4.0430   -24.8340    -7.9990 hc         1 8PP       0.042700
    109 H421         6.1010   -26.4960   -10.8430 hc         1 8PP       0.052200
    110 H422         5.6480   -27.2500    -9.3090 hc         1 8PP       0.052200
    111 H43          5.0200   -29.3990   -10.7500 ha         1 8PP       0.123000
    112 H451         7.7260   -30.5750   -12.1330 hc         1 8PP       0.040533
    113 H452         5.9720   -30.7020   -12.3300 hc         1 8PP       0.040533
    114 H453         6.9500   -29.9260   -13.5840 hc         1 8PP       0.040533
    115 H461         7.9970   -27.2090   -11.2110 hc         1 8PP       0.040533
    116 H462         8.4320   -27.9840   -12.7410 hc         1 8PP       0.040533
    117 H463         7.0810   -26.8440   -12.6790 hc         1 8PP       0.040533
@<TRIPOS>BOND
     1     1     2 ar
     2     1     5 1
     3     1     7 ar
     4     2     3 ar
     5     2     8 1
     6     3     4 ar
     7     3    48 1
     8     4     6 ar
     9     4    49 1
    10     5    50 1
    11     6     7 ar
    12     6    51 1
    13     7    52 1
    14     8     9 1
    15     8    53 1
    16     8    54 1
    17     9    10 2
    18     9    55 1
    19    10    11 1
    20    10    12 1
    21    11    56 1
    22    11    57 1
    23    11    58 1
    24    12    13 1
    25    12    59 1
    26    12    60 1
    27    13    14 1
    28    13    61 1
    29    13    62 1
    30    14    15 2
    31    14    63 1
    32    15    16 1
    33    15    17 1
    34    16    64 1
    35    16    65 1
    36    16    66 1
    37    17    18 1
    38    17    67 1
    39    17    68 1
    40    18    19 1
    41    18    69 1
    42    18    70 1
    43    19    20 2
    44    19    71 1
    45    20    21 1
    46    20    22 1
    47    21    72 1
    48    21    73 1
    49    21    74 1
    50    22    23 1
    51    22    75 1
    52    22    76 1
    53    23    24 1
    54    23    77 1
    55    23    78 1
    56    24    25 2
    57    24    79 1
    58    25    26 1
    59    25    27 1
    60    26    80 1
    61    26    81 1
    62    26    82 1
    63    27    28 1
    64    27    83 1
    65    27    84 1
    66    28    29 1
    67    28    85 1
    68    28    86 1
    69    29    30 2
    70    29    87 1
    71    30    31 1
    72    30    32 1
    73    31    88 1
    74    31    89 1
    75    31    90 1
    76    32    33 1
    77    32    91 1
    78    32    92 1
    79    33    34 1
    80    33    93 1
    81    33    94 1
    82    34    35 2
    83    34    95 1
    84    35    36 1
    85    35    37 1
    86    36    96 1
    87    36    97 1
    88    36    98 1
    89    37    38 1
    90    37    99 1
    91    37   100 1
    92    38    39 1
    93    38   101 1
    94    38   102 1
    95    39    40 2
    96    39   103 1
    97    40    41 1
    98    40    42 1
    99    41    43 1
   100    41   104 1
   101    41   105 1
   102    42   106 1
   103    42   107 1
   104    42   108 1
   105    43    44 1
   106    43   109 1
   107    43   110 1
   108    44    45 2
   109    44   111 1
   110    45    46 1
   111    45    47 1
   112    46   112 1
   113    46   113 1
   114    46   114 1
   115    47   115 1
   116    47   116 1
   117    47   117 1
@<TRIPOS>SUBSTRUCTURE
     1 8PP         1 TEMP              0 ****  ****    0 ROOT
