@<TRIPOS>MOLECULE
8PP
  117   117     1     0     0
SMALL
bcc


@<TRIPOS>ATOM
      1 C1          1.1950    1.4520   -0.1550 ca        1 8PP      0.125100
      2 C2          0.0450    0.7120   -0.4970 ca        1 8PP     -0.092300
      3 C3         -0.5610    0.9690   -1.7300 ca        1 8PP     -0.098000
      4 C4         -0.0460    1.9290   -2.6000 ca        1 8PP     -0.161000
      5 O           1.7780    1.1840    1.0660 oh        1 8PP     -0.501100
      6 C5          1.0910    2.6530   -2.2470 ca        1 8PP     -0.095000
      7 C6          1.7170    2.4210   -1.0250 ca        1 8PP     -0.211000
      8 C7         -0.5200   -0.3110    0.4270 c3        1 8PP      0.003100
      9 C8         -0.2130   -1.6920   -0.0270 c2        1 8PP     -0.173200
     10 C9          0.6230   -2.5400    0.5900 c2        1 8PP     -0.107400
     11 C10         1.3780   -2.1900    1.8180 c3        1 8PP     -0.066900
     12 C11         0.8290   -3.9240    0.0690 c3        1 8PP     -0.041200
     13 C12         2.1410   -4.0480   -0.6840 c3        1 8PP     -0.044200
     14 C13         2.3680   -5.4250   -1.1810 c2        1 8PP     -0.172200
     15 C14         3.3710   -5.7570   -2.0100 c2        1 8PP     -0.125400
     16 C15         4.3420   -4.7550   -2.5110 c3        1 8PP     -0.058900
     17 C16         3.5680   -7.1610   -2.4680 c3        1 8PP     -0.038200
     18 C17         3.2750   -7.3130   -3.9500 c3        1 8PP     -0.044200
     19 C18         3.5190   -8.6940   -4.4250 c2        1 8PP     -0.173200
     20 C19         3.1880   -9.1220   -5.6550 c2        1 8PP     -0.124400
     21 C20         2.5350   -8.2360   -6.6480 c3        1 8PP     -0.058900
     22 C21         3.4700  -10.5180   -6.0930 c3        1 8PP     -0.038200
     23 C22         2.1920  -11.3180   -6.2710 c3        1 8PP     -0.044200
     24 C23         2.4580  -12.6900   -6.7630 c2        1 8PP     -0.173200
     25 C24         1.5140  -13.6410   -6.8490 c2        1 8PP     -0.124400
     26 C25         0.1090  -13.3950   -6.4450 c3        1 8PP     -0.058900
     27 C26         1.8280  -15.0020   -7.3690 c3        1 8PP     -0.038200
     28 C27         1.7420  -16.0520   -6.2750 c3        1 8PP     -0.044200
     29 C28         1.9920  -17.4160   -6.7950 c2        1 8PP     -0.173200
     30 C29         2.1290  -18.4950   -6.0070 c2        1 8PP     -0.124400
     31 C30         2.0500  -18.4050   -4.5290 c3        1 8PP     -0.058900
     32 C31         2.3590  -19.8510   -6.5800 c3        1 8PP     -0.038200
     33 C32         3.7550  -20.3610   -6.2670 c3        1 8PP     -0.044200
     34 C33         3.9720  -21.7330   -6.7840 c2        1 8PP     -0.173200
     35 C34         5.1680  -22.3440   -6.7770 c2        1 8PP     -0.124400
     36 C35         6.3880  -21.6840   -6.2530 c3        1 8PP     -0.058900
     37 C36         5.3320  -23.7330   -7.2920 c3        1 8PP     -0.038200
     38 C37         6.1490  -23.7640   -8.5710 c3        1 8PP     -0.044200
     39 C38         6.3620  -25.1450   -9.0610 c2        1 8PP     -0.174200
     40 C39         6.9170  -25.4310  -10.2500 c2        1 8PP     -0.123400
     41 C40         7.1270  -26.8390  -10.6900 c3        1 8PP     -0.038200
     42 C41         7.3610  -24.3720  -11.1870 c3        1 8PP     -0.058900
     43 C42         6.2240  -27.2010  -11.8570 c3        1 8PP     -0.043200
     44 C43         6.4640  -28.5810  -12.3370 c2        1 8PP     -0.177200
     45 C44         5.7090  -29.1790  -13.2730 c2        1 8PP     -0.124400
     46 C45         5.9830  -30.5620  -13.7320 c3        1 8PP     -0.057900
     47 C46         4.5510  -28.5020  -13.9050 c3        1 8PP     -0.057900
     48 H3         -1.4590    0.3980   -2.0120 ha        1 8PP      0.134000
     49 H4         -0.5380    2.1140   -3.5650 ha        1 8PP      0.133000
     50 HO          2.5380    1.7750    1.1670 ho        1 8PP      0.418000
     51 H5          1.4980    3.4110   -2.9320 ha        1 8PP      0.132000
     52 H6          2.6140    2.9890   -0.7410 ha        1 8PP      0.132000
     53 H71        -1.6390   -0.1890    0.4670 hc        1 8PP      0.059700
     54 H72        -0.1310   -0.1350    1.4680 hc        1 8PP      0.059700
     55 H8         -0.7380   -1.9970   -0.9480 ha        1 8PP      0.118000
     56 H101        0.6980   -2.2200    2.7070 hc        1 8PP      0.046367
     57 H102        2.2150   -2.9090    1.9930 hc        1 8PP      0.046367
     58 H103        1.8080   -1.1590    1.7410 hc        1 8PP      0.046367
     59 H111        0.8220   -4.6450    0.9310 hc        1 8PP      0.045700
     60 H112       -0.0150   -4.2140   -0.6120 hc        1 8PP      0.045700
     61 H121        2.9910   -3.7510   -0.0090 hc        1 8PP      0.051700
     62 H122        2.1470   -3.3270   -1.5470 hc        1 8PP      0.051700
     63 H13         1.6580   -6.1910   -0.8260 ha        1 8PP      0.122000
     64 H151        4.7390   -4.1370   -1.6650 hc        1 8PP      0.041367
     65 H152        5.2040   -5.2450   -3.0260 hc        1 8PP      0.041367
     66 H153        3.8430   -4.0640   -3.2360 hc        1 8PP      0.041367
     67 H161        2.9050   -7.8590   -1.8880 hc        1 8PP      0.045700
     68 H162        4.6300   -7.4670   -2.2630 hc        1 8PP      0.045700
     69 H171        2.2080   -7.0240   -4.1530 hc        1 8PP      0.050200
     70 H172        3.9190   -6.5970   -4.5330 hc        1 8PP      0.050200
     71 H18         4.0020   -9.3760   -3.7070 ha        1 8PP      0.122000
     72 H201        3.0800   -7.2620   -6.7220 hc        1 8PP      0.041033
     73 H202        1.4820   -8.0190   -6.3350 hc        1 8PP      0.041033
     74 H203        2.5110   -8.7070   -7.6610 hc        1 8PP      0.041033
     75 H211        4.1290  -11.0380   -5.3460 hc        1 8PP      0.045700
     76 H212        4.0320  -10.4890   -7.0660 hc        1 8PP      0.045700
     77 H221        1.6400  -11.3660   -5.2920 hc        1 8PP      0.050200
     78 H222        1.5160  -10.7860   -6.9970 hc        1 8PP      0.050200
     79 H23         3.4960  -12.9020   -7.0680 ha        1 8PP      0.122000
     80 H251       -0.5600  -14.2300   -6.7650 hc        1 8PP      0.041367
     81 H252       -0.2690  -12.4440   -6.8990 hc        1 8PP      0.041367
     82 H253        0.0410  -13.2950   -5.3320 hc        1 8PP      0.041367
     83 H261        2.8570  -15.0220   -7.8190 hc        1 8PP      0.045700
     84 H262        1.1030  -15.2560   -8.1890 hc        1 8PP      0.045700
     85 H271        2.4850  -15.8120   -5.4660 hc        1 8PP      0.050200
     86 H272        0.7220  -16.0140   -5.8000 hc        1 8PP      0.050200
     87 H28         2.0570  -17.5120   -7.8910 ha        1 8PP      0.122000
     88 H301        2.9530  -17.8800   -4.1270 hc        1 8PP      0.041367
     89 H302        1.9940  -19.4180   -4.0610 hc        1 8PP      0.041367
     90 H303        1.1470  -17.8220   -4.2190 hc        1 8PP      0.041367
     91 H311        2.2130  -19.8360   -7.6930 hc        1 8PP      0.045700
     92 H312        1.5980  -20.5610   -6.1550 hc        1 8PP      0.045700
     93 H321        4.5170  -19.6630   -6.7090 hc        1 8PP      0.050200
     94 H322        3.9150  -20.3520   -5.1530 hc        1 8PP      0.050200
     95 H33         3.0830  -22.2470   -7.1810 ha        1 8PP      0.122000
     96 H351        6.1880  -21.2300   -5.2500 hc        1 8PP      0.041367
     97 H352        7.2330  -22.4090   -6.1520 hc        1 8PP      0.041367
     98 H353        6.7080  -20.8630   -6.9440 hc        1 8PP      0.041367
     99 H361        4.3290  -24.2010   -7.4840 hc        1 8PP      0.045700
    100 H362        5.8420  -24.3550   -6.5070 hc        1 8PP      0.045700
    101 H371        5.6300  -23.1560   -9.3620 hc        1 8PP      0.050200
    102 H372        7.1460  -23.2730   -8.3890 hc        1 8PP      0.050200
    103 H38         6.0390  -25.9540   -8.3850 ha        1 8PP      0.123000
    104 H401        8.2010  -26.9710  -10.9940 hc        1 8PP      0.045700
    105 H402        6.9330  -27.5480   -9.8410 hc        1 8PP      0.045700
    106 H411        7.9820  -23.6100  -10.6520 hc        1 8PP      0.041367
    107 H412        7.9660  -24.7960  -12.0250 hc        1 8PP      0.041367
    108 H413        6.4740  -23.8470  -11.6230 hc        1 8PP      0.041367
    109 H421        5.1490  -27.0890  -11.5480 hc        1 8PP      0.049700
    110 H422        6.3950  -26.4760  -12.7000 hc        1 8PP      0.049700
    111 H43         7.3170  -29.1120  -11.8840 ha        1 8PP      0.122000
    112 H451        6.8460  -31.0150  -13.1880 hc        1 8PP      0.040533
    113 H452        5.0830  -31.2060  -13.5670 hc        1 8PP      0.040533
    114 H453        6.2150  -30.5630  -14.8270 hc        1 8PP      0.040533
    115 H461        4.1370  -29.1060  -14.7490 hc        1 8PP      0.040533
    116 H462        3.7380  -28.3450  -13.1510 hc        1 8PP      0.040533
    117 H463        4.8510  -27.4990  -14.2990 hc        1 8PP      0.040533
@<TRIPOS>BOND
     1    1    2 ar  
     2    1    5 1   
     3    1    7 ar  
     4    2    3 ar  
     5    2    8 1   
     6    3    4 ar  
     7    3   48 1   
     8    4    6 ar  
     9    4   49 1   
    10    5   50 1   
    11    6    7 ar  
    12    6   51 1   
    13    7   52 1   
    14    8    9 1   
    15    8   53 1   
    16    8   54 1   
    17    9   10 2   
    18    9   55 1   
    19   10   11 1   
    20   10   12 1   
    21   11   56 1   
    22   11   57 1   
    23   11   58 1   
    24   12   13 1   
    25   12   59 1   
    26   12   60 1   
    27   13   14 1   
    28   13   61 1   
    29   13   62 1   
    30   14   15 2   
    31   14   63 1   
    32   15   16 1   
    33   15   17 1   
    34   16   64 1   
    35   16   65 1   
    36   16   66 1   
    37   17   18 1   
    38   17   67 1   
    39   17   68 1   
    40   18   19 1   
    41   18   69 1   
    42   18   70 1   
    43   19   20 2   
    44   19   71 1   
    45   20   21 1   
    46   20   22 1   
    47   21   72 1   
    48   21   73 1   
    49   21   74 1   
    50   22   23 1   
    51   22   75 1   
    52   22   76 1   
    53   23   24 1   
    54   23   77 1   
    55   23   78 1   
    56   24   25 2   
    57   24   79 1   
    58   25   26 1   
    59   25   27 1   
    60   26   80 1   
    61   26   81 1   
    62   26   82 1   
    63   27   28 1   
    64   27   83 1   
    65   27   84 1   
    66   28   29 1   
    67   28   85 1   
    68   28   86 1   
    69   29   30 2   
    70   29   87 1   
    71   30   31 1   
    72   30   32 1   
    73   31   88 1   
    74   31   89 1   
    75   31   90 1   
    76   32   33 1   
    77   32   91 1   
    78   32   92 1   
    79   33   34 1   
    80   33   93 1   
    81   33   94 1   
    82   34   35 2   
    83   34   95 1   
    84   35   36 1   
    85   35   37 1   
    86   36   96 1   
    87   36   97 1   
    88   36   98 1   
    89   37   38 1   
    90   37   99 1   
    91   37  100 1   
    92   38   39 1   
    93   38  101 1   
    94   38  102 1   
    95   39   40 2   
    96   39  103 1   
    97   40   41 1   
    98   40   42 1   
    99   41   43 1   
   100   41  104 1   
   101   41  105 1   
   102   42  106 1   
   103   42  107 1   
   104   42  108 1   
   105   43   44 1   
   106   43  109 1   
   107   43  110 1   
   108   44   45 2   
   109   44  111 1   
   110   45   46 1   
   111   45   47 1   
   112   46  112 1   
   113   46  113 1   
   114   46  114 1   
   115   47  115 1   
   116   47  116 1   
   117   47  117 1   
@<TRIPOS>SUBSTRUCTURE
     1 8PP         1 TEMP              0 ****  ****    0 ROOT
