@<TRIPOS>MOLECULE
molecule
   15    15     1     0     0
SMALL
bcc


@<TRIPOS>ATOM
      1 C4           0.0000     0.0000     0.0000 cc         1 8PQ      -0.242200
      2 C2           1.3540     0.0000     0.0000 cd         1 8PQ      -0.035600
      3 Br          -1.1130    -0.0000    -1.5290 br         1 8PQ      -0.076100
      4 C1          -0.4300    -0.0050     1.3310 cc         1 8PQ       0.372600
      5 C           -1.8640    -0.0070     1.7970 c3         1 8PQ      -0.114400
      6 C3           2.2420    -0.0000    -1.2170 c3         1 8PQ      -0.033800
      7 N1           1.7650     0.0000     1.2860 na         1 8PQ      -0.037600
      8 N            0.6270    -0.0080     2.1030 nd         1 8PQ      -0.508800
      9 H3          -2.3650     0.8790     1.4250 hc         1 8PQ       0.056033
     10 H2          -2.3640    -0.8900     1.4200 hc         1 8PQ       0.056033
     11 H1          -1.8910    -0.0090     2.8800 hc         1 8PQ       0.056033
     12 H5           2.0430     0.8840    -1.8100 hc         1 8PQ       0.057700
     13 H4           3.2800     0.0000    -0.9060 hc         1 8PQ       0.057700
     14 H6           2.0430    -0.8850    -1.8090 hc         1 8PQ       0.057700
     15 H            2.7150    -0.0000     1.6000 hn         1 8PQ       0.333700
@<TRIPOS>BOND
     1     5     4 1   
     2     3     1 1   
     3     4     1 1   
     4     4     8 2   
     5     1     2 2   
     6     8     7 1   
     7     2     7 1   
     8     2     6 1   
     9     5     9 1   
    10     5    10 1   
    11     5    11 1   
    12     6    12 1   
    13     6    13 1   
    14     6    14 1   
    15     7    15 1   
@<TRIPOS>SUBSTRUCTURE
     1 8PQ         1 TEMP              0 ****  ****    0 ROOT
