@<TRIPOS>MOLECULE
8PR
   44    47     1     0     0
SMALL
bcc


@<TRIPOS>ATOM
      1 FAA          0.0000     0.0000     0.0000 f          1 8PR      -0.128900
      2 CAB          2.3690     0.0000     0.0000 ca         1 8PR      -0.129500
      3 CAC          1.1570    -0.0020     2.0680 ca         1 8PR      -0.129500
      4 CAD          4.8570     4.9270     1.6960 ca         1 8PR      -0.215000
      5 CAE          3.5610     0.0000     0.7000 ca         1 8PR      -0.073500
      6 CAF          2.3500    -0.0140     2.7670 ca         1 8PR      -0.073500
      7 CAG          4.8350     6.1560     1.0630 ca         1 8PR      -0.041000
      8 CAH          4.7880     6.0240     3.8330 ca         1 8PR      -0.133000
      9 CAI          6.2240    -1.2270     4.5360 c3         1 8PR       0.145800
     10 CAJ          4.9310    -1.2610     3.7190 c3         1 8PR      -0.022400
     11 CAK          6.2150     1.1970     4.5540 c3         1 8PR       0.146800
     12 CAL          4.3220     9.3570     2.5980 c3         1 8PR       0.432200
     13 CAM          4.9030     2.4920     2.8660 c3         1 8PR       0.196400
     14 NAN          6.2430    -0.0200     5.3750 n7         1 8PR      -0.578200
     15 OAO          4.8550     3.6500     3.7030 os         1 8PR      -0.301900
     16 OAP          4.7690     8.6350     1.4350 os         1 8PR      -0.312900
     17 OAQ          4.7360     8.5270     3.6970 os         1 8PR      -0.312900
     18 CAR          1.1660    -0.0010     0.6840 ca         1 8PR       0.102900
     19 CAS          4.8340     4.8590     3.0820 ca         1 8PR       0.157100
     20 CAT          3.5510    -0.0070     2.0820 ca         1 8PR      -0.103300
     21 CAU          4.7960     7.3220     1.8100 ca         1 8PR       0.012100
     22 CAV          4.7770     7.2560     3.2010 ca         1 8PR       0.098100
     23 CAW          4.9210     1.2340     3.7380 c3         1 8PR      -0.054700
     24 CAX          4.8510    -0.0080     2.8440 c3         1 8PR       0.013600
     25 HAB          2.3770     0.0060    -1.0830 ha         1 8PR       0.119500
     26 HAC          0.2150    -0.0070     2.6040 ha         1 8PR       0.119500
     27 HAE          4.5030     0.0030     0.1650 ha         1 8PR       0.114000
     28 HAF          2.3430    -0.0170     3.8500 ha         1 8PR       0.114000
     29 HAG          4.8540     6.2080    -0.0190 ha         1 8PR       0.110000
     30 HAH          4.7700     5.9700     4.9150 ha         1 8PR       0.126000
     31 HAI          6.2740    -2.1050     5.1690 h1         1 8PR       0.006200
     32 HAIA         7.0740    -1.2110     3.8640 h1         1 8PR       0.006200
     33 HAJ          4.9260    -2.1420     3.0890 hc         1 8PR       0.026200
     34 HAJA         4.0810    -1.2870     4.3910 hc         1 8PR       0.026200
     35 HAK          7.0640     1.1970     3.8810 h1         1 8PR       0.014200
     36 HAKA         6.2590     2.0660     5.1990 h1         1 8PR       0.014200
     37 HAL          3.2440     9.4630     2.5880 h2         1 8PR       0.011700
     38 HALA         4.8060    10.3250     2.6520 h2         1 8PR       0.011700
     39 HAM          5.7980     2.5220     2.2570 h1         1 8PR       0.009200
     40 HAMA         4.0300     2.4730     2.2250 h1         1 8PR       0.009200
     41 HNAN         7.0670    -0.0210     5.9420 hn         1 8PR       0.253800
     42 HAW          4.0720     1.2410     4.4110 hc         1 8PR       0.055700
     43 HAX          5.6830     0.0010     2.1500 hc         1 8PR       0.031700
     44 HAD          4.8930     4.0170     1.1100 ha         1 8PR       0.125000
@<TRIPOS>BOND
     1     1    18 1   
     2     2     5 ar  
     3     2    18 ar  
     4     2    25 1   
     5     3     6 ar  
     6     3    18 ar  
     7     3    26 1   
     8     4     7 ar  
     9     4    19 ar  
    10     4    44 1   
    11     5    20 ar  
    12     5    27 1   
    13     6    20 ar  
    14     6    28 1   
    15     7    21 ar  
    16     7    29 1   
    17     8    19 ar  
    18     8    22 ar  
    19     8    30 1   
    20     9    10 1   
    21     9    14 1   
    22     9    31 1   
    23     9    32 1   
    24    10    24 1   
    25    10    33 1   
    26    10    34 1   
    27    11    14 1   
    28    11    23 1   
    29    11    35 1   
    30    11    36 1   
    31    12    16 1   
    32    12    17 1   
    33    12    37 1   
    34    12    38 1   
    35    13    15 1   
    36    13    23 1   
    37    13    39 1   
    38    13    40 1   
    39    14    41 1   
    40    15    19 1   
    41    16    21 1   
    42    17    22 1   
    43    20    24 1   
    44    21    22 ar  
    45    23    24 1   
    46    23    42 1   
    47    24    43 1   
@<TRIPOS>SUBSTRUCTURE
     1 8PR         1 TEMP              0 ****  ****    0 ROOT
