@<TRIPOS>MOLECULE
molecule
   48    49     1     0     0
SMALL
bcc


@<TRIPOS>ATOM
      1 C1           0.0000     0.0000     0.0000 ca         1 8PS      -0.137000
      2 C2           1.3820     0.0000     0.0000 ca         1 8PS      -0.096300
      3 C3           2.0760     0.0000     1.1950 ca         1 8PS      -0.103000
      4 C4           1.3920    -0.0030     2.3960 ca         1 8PS      -0.192000
      5 C5           0.0060    -0.0080     2.4030 ca         1 8PS       0.092100
      6 C6          -0.6930    -0.0090     1.2000 ca         1 8PS       0.086100
      7 C8           0.2590    -0.1350     4.5670 ca         1 8PS       0.079100
      8 C9           0.6850    -1.3950     4.9660 ca         1 8PS      -0.137000
      9 C10          1.6330    -1.5190     5.9620 ca         1 8PS      -0.121500
     10 C11          2.1500    -0.3890     6.5710 ca         1 8PS      -0.130000
     11 C12          1.7240     0.8660     6.1790 ca         1 8PS      -0.121500
     12 C13          0.7800     0.9960     5.1790 ca         1 8PS      -0.137000
     13 C14          2.1330     0.0040    -1.3060 c3         1 8PS      -0.033100
     14 C15          2.3930    -1.4380    -1.7500 c3         1 8PS      -0.078400
     15 C16          3.1560    -1.4340    -3.0760 c3         1 8PS      -0.083400
     16 C17          3.4160    -2.8740    -3.5200 c3         1 8PS      -0.081400
     17 C18          4.1800    -2.8700    -4.8460 c3         1 8PS      -0.082400
     18 C19          4.4390    -4.3110    -5.2900 c3         1 8PS      -0.081400
     19 C20          5.2020    -4.3060    -6.6150 c3         1 8PS      -0.084400
     20 C21          5.4620    -5.7470    -7.0590 c3         1 8PS      -0.092100
     21 O17         -2.0530    -0.0130     1.2020 oh         1 8PS      -0.505100
     22 O7          -0.6700    -0.0120     3.5830 os         1 8PS      -0.204200
     23 H1          -0.5410    -0.0000    -0.9380 ha         1 8PS       0.143000
     24 H3           3.1600     0.0020     1.1910 ha         1 8PS       0.135000
     25 H4           1.9390    -0.0030     3.3320 ha         1 8PS       0.156000
     26 H9           0.2800    -2.2800     4.4900 ha         1 8PS       0.146000
     27 H10          1.9670    -2.5020     6.2720 ha         1 8PS       0.135500
     28 H11          2.8920    -0.4890     7.3540 ha         1 8PS       0.133000
     29 H12          2.1310     1.7500     6.6570 ha         1 8PS       0.135500
     30 H13          0.4490     1.9800     4.8710 ha         1 8PS       0.146000
     31 H141         1.5450     0.5130    -2.0600 hc         1 8PS       0.047700
     32 H142         3.0780     0.5180    -1.1780 hc         1 8PS       0.047700
     33 H151         2.9820    -1.9470    -0.9960 hc         1 8PS       0.046700
     34 H152         1.4490    -1.9520    -1.8780 hc         1 8PS       0.046700
     35 H161         2.5680    -0.9240    -3.8300 hc         1 8PS       0.040700
     36 H162         4.1010    -0.9190    -2.9480 hc         1 8PS       0.040700
     37 H171         4.0040    -3.3830    -2.7670 hc         1 8PS       0.042200
     38 H172         2.4710    -3.3880    -3.6500 hc         1 8PS       0.042200
     39 H181         3.5920    -2.3600    -5.6000 hc         1 8PS       0.040700
     40 H182         5.1250    -2.3560    -4.7170 hc         1 8PS       0.040700
     41 H191         3.4940    -4.8240    -5.4190 hc         1 8PS       0.041700
     42 H192         5.0270    -4.8200    -4.5360 hc         1 8PS       0.041700
     43 H201         6.1470    -3.7930    -6.4860 hc         1 8PS       0.039700
     44 H202         4.6140    -3.7970    -7.3690 hc         1 8PS       0.039700
     45 H211         4.5170    -6.2610    -7.1880 hc         1 8PS       0.032367
     46 H212         6.0500    -6.2570    -6.3060 hc         1 8PS       0.032367
     47 H213         6.0020    -5.7440    -7.9980 hc         1 8PS       0.032367
     48 H17         -2.3710     0.8290     0.9200 ho         1 8PS       0.416000
@<TRIPOS>BOND
     1     1     2 ar  
     2     1     6 ar  
     3     1    23 1   
     4     2     3 ar  
     5     2    13 1   
     6     3     4 ar  
     7     3    24 1   
     8     4     5 ar  
     9     4    25 1   
    10     5     6 ar  
    11     5    22 1   
    12     6    21 1   
    13     7     8 ar  
    14     7    12 ar  
    15     7    22 1   
    16     8     9 ar  
    17     8    26 1   
    18     9    10 ar  
    19     9    27 1   
    20    10    11 ar  
    21    10    28 1   
    22    11    12 ar  
    23    11    29 1   
    24    12    30 1   
    25    13    14 1   
    26    13    31 1   
    27    13    32 1   
    28    14    15 1   
    29    14    33 1   
    30    14    34 1   
    31    15    16 1   
    32    15    35 1   
    33    15    36 1   
    34    16    17 1   
    35    16    37 1   
    36    16    38 1   
    37    17    18 1   
    38    17    39 1   
    39    17    40 1   
    40    18    19 1   
    41    18    41 1   
    42    18    42 1   
    43    19    20 1   
    44    19    43 1   
    45    19    44 1   
    46    20    45 1   
    47    20    46 1   
    48    20    47 1   
    49    21    48 1   
@<TRIPOS>SUBSTRUCTURE
     1 8PS         1 TEMP              0 ****  ****    0 ROOT
