@<TRIPOS>MOLECULE
8PS
   48    49     1     0     0
SMALL
bcc


@<TRIPOS>ATOM
      1 C1          0.0710    0.3130    0.0210 ca        1 8PS     -0.151000
      2 C2          1.4240    0.3070   -0.3220 ca        1 8PS     -0.046300
      3 C3          2.4000    0.5280    0.6610 ca        1 8PS     -0.155000
      4 C4          2.0370    0.7540    1.9840 ca        1 8PS     -0.105000
      5 C5          0.6840    0.7570    2.3330 ca        1 8PS     -0.002900
      6 C6         -0.3050    0.5360    1.3550 ca        1 8PS      0.133100
      7 C8          0.6500    0.2700    4.6500 ca        1 8PS      0.107100
      8 C9          1.1510   -1.0230    4.4670 ca        1 8PS     -0.165500
      9 C10         1.4800   -1.7840    5.5880 ca        1 8PS     -0.103000
     10 C11         1.3110   -1.2620    6.8700 ca        1 8PS     -0.155000
     11 C12         0.8100    0.0300    7.0400 ca        1 8PS     -0.103000
     12 C13         0.4780    0.8100    5.9360 ca        1 8PS     -0.165500
     13 C14         1.8350    0.0780   -1.7350 c3        1 8PS     -0.040100
     14 C15         2.4540   -1.2940   -1.9250 c3        1 8PS     -0.076400
     15 C16         2.8990   -1.4960   -3.3570 c3        1 8PS     -0.080400
     16 C17         3.5140   -2.8660   -3.5520 c3        1 8PS     -0.078400
     17 C18         3.9610   -3.0680   -4.9840 c3        1 8PS     -0.079400
     18 C19         4.5740   -4.4380   -5.1790 c3        1 8PS     -0.079400
     19 C20         5.0230   -4.6420   -6.6100 c3        1 8PS     -0.080400
     20 C21         5.6340   -6.0050   -6.8090 c3        1 8PS     -0.093100
     21 O17        -1.6480    0.5440    1.6380 oh        1 8PS     -0.492100
     22 O7          0.2420    1.1020    3.6100 os        1 8PS     -0.260200
     23 H1         -0.7110    0.1470   -0.7340 ha        1 8PS      0.154000
     24 H3          3.4630    0.5250    0.3790 ha        1 8PS      0.139000
     25 H4          2.7980    0.9290    2.7590 ha        1 8PS      0.149000
     26 H9          1.2840   -1.4280    3.4530 ha        1 8PS      0.149500
     27 H10         1.8740   -2.8020    5.4550 ha        1 8PS      0.135000
     28 H11         1.5720   -1.8690    7.7490 ha        1 8PS      0.134000
     29 H12         0.6790    0.4400    8.0520 ha        1 8PS      0.135000
     30 H13         0.0840    1.8290    6.0520 ha        1 8PS      0.149500
     31 H141        0.9480    0.1820   -2.4170 hc        1 8PS      0.051700
     32 H142        2.5780    0.8660   -2.0350 hc        1 8PS      0.051700
     33 H151        1.7090   -2.0850   -1.6460 hc        1 8PS      0.044700
     34 H152        3.3320   -1.4070   -1.2350 hc        1 8PS      0.044700
     35 H161        3.6450   -0.7060   -3.6350 hc        1 8PS      0.040200
     36 H162        2.0200   -1.3770   -4.0450 hc        1 8PS      0.040200
     37 H171        4.3910   -2.9850   -2.8630 hc        1 8PS      0.040200
     38 H172        2.7670   -3.6560   -3.2750 hc        1 8PS      0.040200
     39 H181        3.0830   -2.9480   -5.6720 hc        1 8PS      0.039700
     40 H182        4.7080   -2.2790   -5.2600 hc        1 8PS      0.039700
     41 H191        3.8270   -5.2280   -4.9030 hc        1 8PS      0.039700
     42 H192        5.4510   -4.5590   -4.4900 hc        1 8PS      0.039700
     43 H201        5.7690   -3.8500   -6.8840 hc        1 8PS      0.038700
     44 H202        4.1440   -4.5190   -7.2980 hc        1 8PS      0.038700
     45 H211        6.5260   -6.1370   -6.1500 hc        1 8PS      0.032700
     46 H212        4.8970   -6.8080   -6.5650 hc        1 8PS      0.032700
     47 H213        5.9580   -6.1340   -7.8700 hc        1 8PS      0.032700
     48 H17        -1.7500    0.7130    2.5890 ho        1 8PS      0.437000
@<TRIPOS>BOND
     1    1    2 ar  
     2    1    6 ar  
     3    1   23 1   
     4    2    3 ar  
     5    2   13 1   
     6    3    4 ar  
     7    3   24 1   
     8    4    5 ar  
     9    4   25 1   
    10    5    6 ar  
    11    5   22 1   
    12    6   21 1   
    13    7    8 ar  
    14    7   12 ar  
    15    7   22 1   
    16    8    9 ar  
    17    8   26 1   
    18    9   10 ar  
    19    9   27 1   
    20   10   11 ar  
    21   10   28 1   
    22   11   12 ar  
    23   11   29 1   
    24   12   30 1   
    25   13   14 1   
    26   13   31 1   
    27   13   32 1   
    28   14   15 1   
    29   14   33 1   
    30   14   34 1   
    31   15   16 1   
    32   15   35 1   
    33   15   36 1   
    34   16   17 1   
    35   16   37 1   
    36   16   38 1   
    37   17   18 1   
    38   17   39 1   
    39   17   40 1   
    40   18   19 1   
    41   18   41 1   
    42   18   42 1   
    43   19   20 1   
    44   19   43 1   
    45   19   44 1   
    46   20   45 1   
    47   20   46 1   
    48   20   47 1   
    49   21   48 1   
@<TRIPOS>SUBSTRUCTURE
     1 8PS         1 TEMP              0 ****  ****    0 ROOT
