@<TRIPOS>MOLECULE
8PT
   59    63     1     0     0
SMALL
bcc


@<TRIPOS>ATOM
      1 C4           0.0000     0.0000     0.0000 ca         1 8PT       0.610300
      2 C5           1.4040     0.0000     0.0000 ca         1 8PT      -0.640800
      3 C6           2.0750     0.0000     1.2250 ca         1 8PT       0.627200
      4 C8           0.6570     0.0010    -2.0670 cc         1 8PT       0.259700
      5 C2           0.0310    -0.0010     2.3080 ca         1 8PT       0.735900
      6 CAU          4.2790    -1.4360     3.0730 c3         1 8PT      -0.040400
      7 CAV          4.9980    -1.4370     4.4240 c3         1 8PT      -0.017400
      8 CAW          6.3910    -0.8260     4.2600 c3         1 8PT      -0.028400
      9 CAX          6.2610     0.6110     3.7510 c3         1 8PT      -0.017400
     10 CAY          5.5410     0.6110     2.4010 c3         1 8PT      -0.040400
     11 CAK          4.1490     0.0010     2.5650 c3         1 8PT       0.135500
     12 N6           3.4590     0.0010     1.2730 nu         1 8PT      -0.498900
     13 N1           1.3580    -0.0010     2.3440 nb         1 8PT      -0.762000
     14 N7           1.7870     0.0010    -1.3260 na         1 8PT       0.297700
     15 N9          -0.3900     0.0050    -1.2900 nd         1 8PT      -0.607700
     16 N3          -0.6440    -0.0020     1.1710 nb         1 8PT      -0.690000
     17 N2          -0.6710    -0.0020     3.5040 nu         1 8PT      -0.284300
     18 CAM         -2.0670     0.1220     3.4960 ca         1 8PT      -0.017400
     19 CAR         -2.8130    -0.3750     4.5560 ca         1 8PT      -0.109300
     20 CAS         -2.1220    -1.0480     5.7140 c3         1 8PT       0.063200
     21 CAQ         -4.1890    -0.2520     4.5490 ca         1 8PT      -0.109000
     22 CAN         -2.7030     0.7470     2.4310 ca         1 8PT      -0.092000
     23 CAO         -4.0770     0.8700     2.4240 ca         1 8PT      -0.144000
     24 CAP         -4.8250     0.3690     3.4820 ca         1 8PT      -0.001400
     25 NAT         -6.2190     0.4940     3.4750 nh         1 8PT      -0.359000
     26 CAZ         -6.6800     1.1780     2.2590 c3         1 8PT       0.093800
     27 CBA         -8.2100     1.2400     2.2630 c3         1 8PT       0.212900
     28 OBB         -8.6510     1.8970     3.4550 os         1 8PT      -0.412600
     29 CBC         -8.2210     1.2570     4.6580 c3         1 8PT       0.212900
     30 CBD         -6.6910     1.1950     4.6780 c3         1 8PT       0.093800
     31 H1           0.6250    -0.0020    -3.1500 h5         1 8PT       0.026800
     32 H2           4.8500    -2.0200     2.3620 hc         1 8PT       0.019700
     33 H3           5.0920    -2.4550     4.7820 hc         1 8PT       0.016700
     34 H4           6.9580    -1.4110     3.5460 hc         1 8PT       0.014700
     35 H5           6.8980    -0.8240     5.2170 hc         1 8PT       0.014700
     36 H6           5.6900     1.1950     4.4630 hc         1 8PT       0.016700
     37 H7           7.2480     1.0410     3.6320 hc         1 8PT       0.016700
     38 H8           5.4480     1.6300     2.0440 hc         1 8PT       0.019700
     39 H9           6.1100     0.0240     1.6900 hc         1 8PT       0.019700
     40 H10          3.5830     0.5850     3.2800 h1         1 8PT       0.061700
     41 H11          3.9890     0.0130     0.4230 hn         1 8PT       0.283800
     42 H12          2.7260    -0.0020    -1.6730 hn         1 8PT       0.119700
     43 H14         -0.1780    -0.0440     4.3730 hn         1 8PT       0.291800
     44 H15         -1.5120    -0.3250     6.2410 hc         1 8PT       0.006367
     45 H16         -2.8650    -1.4550     6.3900 hc         1 8PT       0.006367
     46 H17         -1.4940    -1.8490     5.3440 hc         1 8PT       0.006367
     47 H18         -4.7720    -0.6410     5.3750 ha         1 8PT       0.114000
     48 H19         -2.1200     1.1380     1.6050 ha         1 8PT       0.160000
     49 H20         -4.5740     1.3560     1.5930 ha         1 8PT       0.122000
     50 H21         -6.2790     2.1840     2.2370 h1         1 8PT       0.026450
     51 H22         -6.3440     0.6300     1.3870 h1         1 8PT       0.026450
     52 H23         -8.5510     1.7950     1.3980 h1         1 8PT       0.012200
     53 H24         -8.6120     0.2340     2.2360 h1         1 8PT       0.012200
     54 H25         -8.5700     1.8240     5.5130 h1         1 8PT       0.012200
     55 H26         -8.6230     0.2520     4.6960 h1         1 8PT       0.012200
     56 H27         -6.3630     0.6580     5.5600 h1         1 8PT       0.026450
     57 H28         -6.2890     2.2010     4.6900 h1         1 8PT       0.026450
     58 H13          3.2920    -1.8670     3.1920 hc         1 8PT       0.019700
     59 H29          4.4290    -0.8500     5.1350 hc         1 8PT       0.016700
@<TRIPOS>BOND
     1     1     2 ar  
     2     1    15 1   
     3     1    16 ar  
     4     2     3 ar  
     5     2    14 1   
     6     3    12 1   
     7     3    13 ar  
     8     4    14 1   
     9     4    15 2   
    10     4    31 1   
    11     5    13 ar  
    12     5    16 ar  
    13     5    17 1   
    14     6     7 1   
    15     6    11 1   
    16     6    32 1   
    17     6    58 1   
    18     7     8 1   
    19     7    33 1   
    20     7    59 1   
    21     8     9 1   
    22     8    34 1   
    23     8    35 1   
    24     9    10 1   
    25     9    36 1   
    26     9    37 1   
    27    10    11 1   
    28    10    38 1   
    29    10    39 1   
    30    11    12 1   
    31    11    40 1   
    32    12    41 1   
    33    14    42 1   
    34    17    18 1   
    35    17    43 1   
    36    18    19 ar  
    37    18    22 ar  
    38    19    20 1   
    39    19    21 ar  
    40    20    44 1   
    41    20    45 1   
    42    20    46 1   
    43    21    24 ar  
    44    21    47 1   
    45    22    23 ar  
    46    22    48 1   
    47    23    24 ar  
    48    23    49 1   
    49    24    25 1   
    50    25    26 1   
    51    25    30 1   
    52    26    27 1   
    53    26    50 1   
    54    26    51 1   
    55    27    28 1   
    56    27    52 1   
    57    27    53 1   
    58    28    29 1   
    59    29    30 1   
    60    29    54 1   
    61    29    55 1   
    62    30    56 1   
    63    30    57 1   
@<TRIPOS>SUBSTRUCTURE
     1 8PT         1 TEMP              0 ****  ****    0 ROOT
