@<TRIPOS>MOLECULE
molecule
   59    63     1     0     0
SMALL
bcc


@<TRIPOS>ATOM
      1 C4           0.0000     0.0000     0.0000 ca         1 8PT       0.677300
      2 C5           1.4040     0.0000     0.0000 ca         1 8PT      -0.455800
      3 C6           2.0750     0.0000     1.2250 ca         1 8PT       0.793200
      4 C8           0.6570     0.0010    -2.0670 cc         1 8PT       0.454700
      5 C2           0.0310    -0.0010     2.3080 ca         1 8PT       0.972900
      6 CAU          4.2790    -1.4360     3.0730 c3         1 8PT      -0.094900
      7 CAV          4.9980    -1.4370     4.4240 c3         1 8PT      -0.076400
      8 CAW          6.3910    -0.8260     4.2600 c3         1 8PT      -0.083400
      9 CAX          6.2610     0.6110     3.7510 c3         1 8PT      -0.076400
     10 CAY          5.5410     0.6110     2.4010 c3         1 8PT      -0.094900
     11 CAK          4.1490     0.0010     2.5650 c3         1 8PT       0.245500
     12 N6           3.4590     0.0010     1.2730 nu         1 8PT      -0.908900
     13 N1           1.3580    -0.0010     2.3440 nb         1 8PT      -0.859000
     14 N7           1.7870     0.0010    -1.3260 na         1 8PT      -0.246300
     15 N9          -0.3900     0.0050    -1.2900 nd         1 8PT      -0.685700
     16 N3          -0.6440    -0.0020     1.1710 nb         1 8PT      -0.796000
     17 N2          -0.6710    -0.0020     3.5040 nu         1 8PT      -0.749300
     18 CAM         -2.0670     0.1220     3.4960 ca         1 8PT       0.139600
     19 CAR         -2.8130    -0.3750     4.5560 ca         1 8PT      -0.105300
     20 CAS         -2.1220    -1.0480     5.7140 c3         1 8PT      -0.046800
     21 CAQ         -4.1890    -0.2520     4.5490 ca         1 8PT      -0.132000
     22 CAN         -2.7030     0.7470     2.4310 ca         1 8PT      -0.104000
     23 CAO         -4.0770     0.8700     2.4240 ca         1 8PT      -0.165000
     24 CAP         -4.8250     0.3690     3.4820 ca         1 8PT       0.079600
     25 NAT         -6.2190     0.4940     3.4750 nh         1 8PT      -0.594000
     26 CAZ         -6.6800     1.1780     2.2590 c3         1 8PT       0.125300
     27 CBA         -8.2100     1.2400     2.2630 c3         1 8PT       0.136400
     28 OBB         -8.6510     1.8970     3.4550 os         1 8PT      -0.425600
     29 CBC         -8.2210     1.2570     4.6580 c3         1 8PT       0.136400
     30 CBD         -6.6910     1.1950     4.6780 c3         1 8PT       0.125300
     31 H1           0.6250    -0.0020    -3.1500 h5         1 8PT       0.076800
     32 H2           4.8500    -2.0200     2.3620 hc         1 8PT       0.047450
     33 H3           5.0920    -2.4550     4.7820 hc         1 8PT       0.045200
     34 H4           6.9580    -1.4110     3.5460 hc         1 8PT       0.042700
     35 H5           6.8980    -0.8240     5.2170 hc         1 8PT       0.042700
     36 H6           5.6900     1.1950     4.4630 hc         1 8PT       0.045200
     37 H7           7.2480     1.0410     3.6320 hc         1 8PT       0.045200
     38 H8           5.4480     1.6300     2.0440 hc         1 8PT       0.047450
     39 H9           6.1100     0.0240     1.6900 hc         1 8PT       0.047450
     40 H10          3.5830     0.5850     3.2800 h1         1 8PT       0.083700
     41 H11          3.9890     0.0130     0.4230 hn         1 8PT       0.438800
     42 H12          2.7260    -0.0020    -1.6730 hn         1 8PT       0.297700
     43 H14         -0.1780    -0.0440     4.3730 hn         1 8PT       0.462800
     44 H15         -1.5120    -0.3250     6.2410 hc         1 8PT       0.041367
     45 H16         -2.8650    -1.4550     6.3900 hc         1 8PT       0.041367
     46 H17         -1.4940    -1.8490     5.3440 hc         1 8PT       0.041367
     47 H18         -4.7720    -0.6410     5.3750 ha         1 8PT       0.135000
     48 H19         -2.1200     1.1380     1.6050 ha         1 8PT       0.182000
     49 H20         -4.5740     1.3560     1.5930 ha         1 8PT       0.139000
     50 H21         -6.2790     2.1840     2.2370 h1         1 8PT       0.050950
     51 H22         -6.3440     0.6300     1.3870 h1         1 8PT       0.050950
     52 H23         -8.5510     1.7950     1.3980 h1         1 8PT       0.053700
     53 H24         -8.6120     0.2340     2.2360 h1         1 8PT       0.053700
     54 H25         -8.5700     1.8240     5.5130 h1         1 8PT       0.053700
     55 H26         -8.6230     0.2520     4.6960 h1         1 8PT       0.053700
     56 H27         -6.3630     0.6580     5.5600 h1         1 8PT       0.050950
     57 H28         -6.2890     2.2010     4.6900 h1         1 8PT       0.050950
     58 H13          3.2920    -1.8670     3.1920 hc         1 8PT       0.047450
     59 H29          4.4290    -0.8500     5.1350 hc         1 8PT       0.045200
@<TRIPOS>BOND
     1    15     4 2   
     2    15     1 1   
     3     4    14 1   
     4     1    16 ar  
     5     1     2 ar  
     6    16     5 ar  
     7    14     2 1   
     8     2     3 ar  
     9     5    17 1   
    10     5    13 ar  
    11    17    18 1   
    12     3    13 ar  
    13     3    12 1   
    14    20    19 1   
    15    18    19 ar  
    16    18    22 ar  
    17    12    11 1   
    18    11    10 1   
    19    11     6 1   
    20    19    21 ar  
    21    22    23 ar  
    22    10     9 1   
    23     6     7 1   
    24    21    24 ar  
    25     9     8 1   
    26    23    24 ar  
    27    24    25 1   
    28     7     8 1   
    29    25    26 1   
    30    25    30 1   
    31    26    27 1   
    32    30    29 1   
    33    27    28 1   
    34    29    28 1   
    35     4    31 1   
    36     6    32 1   
    37     7    33 1   
    38     8    34 1   
    39     8    35 1   
    40     9    36 1   
    41     9    37 1   
    42    10    38 1   
    43    10    39 1   
    44    11    40 1   
    45    12    41 1   
    46    14    42 1   
    47    17    43 1   
    48    20    44 1   
    49    20    45 1   
    50    20    46 1   
    51    21    47 1   
    52    22    48 1   
    53    23    49 1   
    54    26    50 1   
    55    26    51 1   
    56    27    52 1   
    57    27    53 1   
    58    29    54 1   
    59    29    55 1   
    60    30    56 1   
    61    30    57 1   
    62     6    58 1   
    63     7    59 1   
@<TRIPOS>SUBSTRUCTURE
     1 8PT         1 TEMP              0 ****  ****    0 ROOT
