@<TRIPOS>MOLECULE
molecule
   49    52     1     0     0
SMALL
bcc


@<TRIPOS>ATOM
      1 N3           0.0000     0.0000     0.0000 ns         1 8PV      -0.575900
      2 C4           1.4640     0.0000     0.0000 c3         1 8PV       0.117300
      3 C5           1.9670     0.0000     1.4200 ca         1 8PV      -0.111300
      4 C6           2.1980    -1.1980     2.0710 ca         1 8PV      -0.113500
      5 C7           2.6590    -1.1980     3.3740 ca         1 8PV      -0.125500
      6 C8           2.8890    -0.0020     4.0260 ca         1 8PV      -0.116000
      7 C10          2.2030     1.1960     2.0710 ca         1 8PV      -0.113500
      8 C13         -4.2340    -0.0480    -0.0560 ca         1 8PV      -0.111000
      9 C15         -3.4580     2.2220     0.0030 ca         1 8PV       0.084600
     10 C17         -3.3090     4.7200     0.2550 c3         1 8PV       0.180500
     11 C20         -6.4970     1.7730     3.4230 cc         1 8PV       0.299000
     12 C24         -7.7960     1.0530     3.7840 ca         1 8PV      -0.038500
     13 C26         -9.0500    -0.3310     5.2480 ca         1 8PV       0.405200
     14 C28        -10.0480     0.4890     3.2940 ca         1 8PV       0.405200
     15 C2          -0.6750     0.0000    -1.1670 c          1 8PV       0.675700
     16 C9           2.6580     1.1950     3.3760 ca         1 8PV      -0.125500
     17 C11         -1.9510     0.4550    -0.6020 ca         1 8PV      -0.121600
     18 C12         -2.9710    -0.4700    -0.4400 ca         1 8PV      -0.093000
     19 C14         -4.4770     1.2970     0.1660 ca         1 8PV      -0.094000
     20 C18         -5.0370     2.9760     2.3810 cc         1 8PV       0.019800
     21 N19         -6.2910     2.5220     2.3370 na         1 8PV      -0.445700
     22 N21         -5.3860     1.7650     4.1280 nd         1 8PV      -0.372000
     23 N22         -4.4750     2.5150     3.4790 nd         1 8PV      -0.465000
     24 C25         -7.8720     0.3220     4.9220 ca         1 8PV      -0.248800
     25 N27        -10.1220    -0.2390     4.4300 nb         1 8PV      -0.696000
     26 C29         -8.8720     1.1440     2.9660 ca         1 8PV      -0.248800
     27 C30         -2.1950     1.8010    -0.3810 ca         1 8PV      -0.058000
     28 H1          -0.5000    -0.3270     0.8030 hn         1 8PV       0.323500
     29 H2           1.8250    -1.0050    -0.1800 h1         1 8PV       0.060200
     30 H3           1.8250     0.6580    -0.7810 h1         1 8PV       0.060200
     31 H4           2.0180    -2.1360     1.5600 ha         1 8PV       0.130500
     32 H5           2.8400    -2.1370     3.8840 ha         1 8PV       0.133500
     33 H6           3.2500    -0.0030     5.0480 ha         1 8PV       0.134000
     34 H7           2.0260     2.1350     1.5600 ha         1 8PV       0.130500
     35 H8          -5.0300    -0.7710     0.0710 ha         1 8PV       0.154000
     36 H9          -3.8310     5.6430     0.0360 h1         1 8PV       0.132200
     37 H10         -2.3380     4.9470     0.6790 h1         1 8PV       0.132200
     38 H11         -9.1110    -0.9160     6.1580 h4         1 8PV       0.021100
     39 H12        -10.9090     0.5620     2.6400 h4         1 8PV       0.021100
     40 H13          2.8380     2.1330     3.8880 ha         1 8PV       0.133500
     41 H14         -2.7800    -1.5220    -0.6130 ha         1 8PV       0.149000
     42 H15         -5.4650     1.6270     0.4660 ha         1 8PV       0.170000
     43 H16         -5.0890     3.5970    -0.1050 hn         1 8PV       0.506800
     44 H17         -6.9670     2.7280     1.6280 hn         1 8PV       0.252700
     45 H18         -7.0120     0.2480     5.5770 ha         1 8PV       0.141000
     46 H19         -8.8120     1.7270     2.0550 ha         1 8PV       0.141000
     47 H20         -1.3990     2.5240    -0.5080 ha         1 8PV       0.146000
     48 N16         -4.1030     3.5220     0.0500 nu         1 8PV      -0.440600
     49 O1          -0.0880     0.1150    -2.1900 o          1 8PV      -0.545100
@<TRIPOS>BOND
     1     6     5 ar
     2     6    16 ar
     3     5     4 ar
     4    16     7 ar
     5    10    48 1
     6    10    20 1
     7     4     3 ar
     8     7     3 ar
     9    48     9 1
    10     3     2 1
    11    20    21 1
    12    20    23 2
    13     9    27 ar
    14     9    19 ar
    15    21    11 1
    16    27    17 ar
    17    19     8 ar
    18     1     2 1
    19     1    15 1
    20    24    13 ar
    21    24    12 ar
    22    17    15 1
    23    17    18 ar
    24     8    18 ar
    25    23    22 1
    26    11    12 1
    27    11    22 2
    28    15    49 2
    29    13    25 ar
    30    12    26 ar
    31    25    14 ar
    32    26    14 ar
    33     1    28 1
    34     2    29 1
    35     2    30 1
    36     4    31 1
    37     5    32 1
    38     6    33 1
    39     7    34 1
    40     8    35 1
    41    10    36 1
    42    10    37 1
    43    13    38 1
    44    14    39 1
    45    16    40 1
    46    18    41 1
    47    19    42 1
    48    48    43 1
    49    21    44 1
    50    24    45 1
    51    26    46 1
    52    27    47 1
@<TRIPOS>SUBSTRUCTURE
     1 8PV         1 TEMP              0 ****  ****    0 ROOT
