@<TRIPOS>MOLECULE
8PW
   63    66     1     0     0
SMALL
bcc


@<TRIPOS>ATOM
      1 O26          0.0000     0.0000     0.0000 o          1 8PW      -0.613100
      2 C5           1.2130     0.0000     0.0000 c          1 8PW       0.658100
      3 C8           1.9660     0.0000     1.3050 cx         1 8PW      -0.239000
      4 C16          1.1650    -0.2500     2.5840 cx         1 8PW      -0.047400
      5 C17          2.1010    -1.3340     2.0440 cx         1 8PW      -0.047400
      6 C38          3.1430     0.9750     1.3890 c3         1 8PW       0.042900
      7 N2           1.8870    -0.0050    -1.1670 n          1 8PW      -0.139800
      8 C7           1.2830     0.0740    -2.5050 c3         1 8PW      -0.035300
      9 C12          0.3440    -1.0870    -2.7130 c          1 8PW       0.550100
     10 N14         -0.3220    -1.2140    -3.8780 ns         1 8PW      -0.146900
     11 C13         -1.2350    -2.3430    -4.0790 cx         1 8PW      -0.167900
     12 C18         -1.9820    -2.8010    -2.8530 c2         1 8PW       0.425200
     13 N19         -2.2000    -1.9850    -1.8930 n2         1 8PW      -0.596100
     14 C23         -1.9600    -2.4320    -5.4230 cx         1 8PW      -0.065900
     15 C24         -0.8260    -3.4080    -5.0990 cx         1 8PW      -0.065900
     16 O27          0.1890    -1.9060    -1.8320 o          1 8PW      -0.606100
     17 C11          2.4340     0.0070    -3.5320 c3         1 8PW       0.011600
     18 C10          3.3520    -0.0850    -1.3130 c3         1 8PW       0.064000
     19 C3           3.5750    -0.6730    -2.7310 c3         1 8PW      -0.035900
     20 S1           5.2000    -0.1960    -3.3810 sy         1 8PW       0.881300
     21 O20          5.4250    -0.7950    -4.6490 o          1 8PW      -0.574300
     22 O21          5.4320     1.1900    -3.1740 o          1 8PW      -0.574300
     23 C6           6.3520    -0.9940    -2.3130 ca         1 8PW      -0.141500
     24 C4           7.0250    -2.1230    -2.7430 ca         1 8PW      -0.062300
     25 C9           6.7700    -2.6700    -4.1240 c3         1 8PW       0.658200
     26 F28          7.4520    -3.8820    -4.2790 f          1 8PW      -0.200300
     27 F29          5.3990    -2.8820    -4.2970 f          1 8PW      -0.200300
     28 F30          7.2250    -1.7550    -5.0800 f          1 8PW      -0.200300
     29 C25          7.9280    -2.7510    -1.9090 ca         1 8PW      -0.105000
     30 C22          6.5870    -0.4860    -1.0490 ca         1 8PW       0.040000
     31 C37          7.4920    -1.1100    -0.2100 ca         1 8PW      -0.214000
     32 C35          8.1620    -2.2460    -0.6370 ca         1 8PW       0.195100
     33 O36          9.0510    -2.8610     0.1860 os         1 8PW      -0.279900
     34 C31          9.2420    -2.2870     1.4810 c3         1 8PW       0.141400
     35 C15         10.2710    -3.1100     2.2570 c3         1 8PW       0.574900
     36 F34         11.4860    -3.1110     1.5650 f          1 8PW      -0.198300
     37 F32         10.4570    -2.5480     3.5250 f          1 8PW      -0.198300
     38 F33          9.8100    -4.4240     2.3940 f          1 8PW      -0.198300
     39 H161         0.1060    -0.4340     2.4440 hc         1 8PW       0.054700
     40 H162         1.5150     0.2730     3.4650 hc         1 8PW       0.054700
     41 H171         3.0230    -1.4720     2.5950 hc         1 8PW       0.054700
     42 H172         1.6140    -2.1800     1.5730 hc         1 8PW       0.054700
     43 H381         3.1720     1.4210     2.3760 hc         1 8PW       0.006367
     44 H382         3.0210     1.7530     0.6450 hc         1 8PW       0.006367
     45 H383         4.0680     0.4420     1.2060 hc         1 8PW       0.006367
     46 H7           0.7500     1.0100    -2.6120 h1         1 8PW       0.048700
     47 H101         3.7910     0.9030    -1.2420 h1         1 8PW       0.037200
     48 H102         3.7690    -0.7460    -0.5620 h1         1 8PW       0.037200
     49 H111         2.1510    -0.6000    -4.3830 hc         1 8PW       0.039700
     50 H112         2.7260     1.0030    -3.8420 hc         1 8PW       0.039700
     51 H14         -0.2240    -0.5170    -4.5890 hn         1 8PW       0.173500
     52 H231        -2.9590    -2.8490    -5.3890 hc         1 8PW       0.051700
     53 H232        -1.7170    -1.6550    -6.1380 hc         1 8PW       0.051700
     54 H241        -1.1340    -4.4200    -4.8660 hc         1 8PW       0.051700
     55 H242         0.1090    -3.2270    -5.6150 hc         1 8PW       0.051700
     56 H19         -1.8740    -1.0410    -1.9560 hn         1 8PW       0.327400
     57 H3           3.4520    -1.7500    -2.7250 h1         1 8PW       0.099700
     58 H22          6.0630     0.4010    -0.7160 ha         1 8PW       0.122000
     59 H25          8.4530    -3.6370    -2.2460 ha         1 8PW       0.145000
     60 H37          7.6740    -0.7130     0.7820 ha         1 8PW       0.126000
     61 H311         9.5980    -1.2700     1.3760 h1         1 8PW       0.038700
     62 H312         8.3010    -2.2870     2.0170 h1         1 8PW       0.038700
     63 HXT         -2.3350    -3.8230    -2.7850 h4         1 8PW      -0.008200
@<TRIPOS>BOND
     1     1     2 2   
     2     2     3 1   
     3     2     7 1   
     4     3     4 1   
     5     3     5 1   
     6     3     6 1   
     7     4     5 1   
     8     4    39 1   
     9     4    40 1   
    10     5    41 1   
    11     5    42 1   
    12     6    43 1   
    13     6    44 1   
    14     6    45 1   
    15     7     8 1   
    16     7    18 1   
    17     8     9 1   
    18     8    17 1   
    19     8    46 1   
    20     9    10 1   
    21     9    16 2   
    22    10    11 1   
    23    10    51 1   
    24    11    12 1   
    25    11    14 1   
    26    11    15 1   
    27    12    13 2   
    28    12    63 1   
    29    13    56 1   
    30    14    15 1   
    31    14    52 1   
    32    14    53 1   
    33    15    54 1   
    34    15    55 1   
    35    17    19 1   
    36    17    49 1   
    37    17    50 1   
    38    18    19 1   
    39    18    47 1   
    40    18    48 1   
    41    19    20 1   
    42    19    57 1   
    43    20    21 2   
    44    20    22 2   
    45    20    23 1   
    46    23    24 ar  
    47    23    30 ar  
    48    24    25 1   
    49    24    29 ar  
    50    25    26 1   
    51    25    27 1   
    52    25    28 1   
    53    29    32 ar  
    54    29    59 1   
    55    30    31 ar  
    56    30    58 1   
    57    31    32 ar  
    58    31    60 1   
    59    32    33 1   
    60    33    34 1   
    61    34    35 1   
    62    34    61 1   
    63    34    62 1   
    64    35    36 1   
    65    35    37 1   
    66    35    38 1   
@<TRIPOS>SUBSTRUCTURE
     1 8PW         1 TEMP              0 ****  ****    0 ROOT
