@<TRIPOS>MOLECULE
molecule
   58    61     1     0     0
SMALL
bcc


@<TRIPOS>ATOM
      1 C1           0.0000     0.0000     0.0000 ca         1 8PZ       0.458800
      2 C2           1.4050     0.0000     0.0000 ca         1 8PZ      -0.168200
      3 C3           2.0680     0.0000     1.2400 ca         1 8PZ       0.790200
      4 C4           0.7580     0.0030    -2.0690 cc         1 8PZ       0.406700
      5 N1           1.3370    -0.0010     2.3500 nb         1 8PZ      -0.752000
      6 N2          -0.6470    -0.0010     1.1620 nb         1 8PZ      -0.746000
      7 C5           4.6650     0.3840    -6.4040 ca         1 8PZ      -0.113500
      8 C6           5.9340     0.8780    -6.6470 ca         1 8PZ      -0.101000
      9 C7           6.6340     0.4650    -7.7650 ca         1 8PZ      -0.080000
     10 C8           6.0670    -0.4420    -8.6400 ca         1 8PZ      -0.101000
     11 C9           4.7980    -0.9370    -8.3970 ca         1 8PZ      -0.113500
     12 C10          4.1010    -0.5280    -7.2760 ca         1 8PZ      -0.187300
     13 C11          2.7170    -1.0660    -7.0110 c3         1 8PZ       0.174800
     14 N3           2.5630    -1.3330    -5.5750 nz         1 8PZ      -0.864600
     15 C12          1.6760    -0.0360    -7.4540 c3         1 8PZ      -0.193400
     16 C13          0.2960    -0.6230    -7.3030 c          1 8PZ       0.673100
     17 O1           0.1590    -1.7520    -6.8830 o          1 8PZ      -0.585100
     18 N4          -0.7870     0.1100    -7.6350 ns         1 8PZ      -0.662300
     19 S1          -2.3030    -0.5340    -7.4700 s6         1 8PZ       1.646100
     20 O2          -3.2150     0.4820    -7.8640 o          1 8PZ      -0.596800
     21 O3          -2.2620    -1.8200    -8.0760 o          1 8PZ      -0.596800
     22 C14         -2.7960     0.4260    -5.2430 c3         1 8PZ       0.188400
     23 C15         -3.0120     0.0740    -3.7690 c3         1 8PZ       0.105100
     24 O5          -1.7890    -0.4250    -3.2020 os         1 8PZ      -0.415600
     25 C16         -3.3990     1.3400    -2.9800 c3         1 8PZ      -0.388900
     26 O6          -4.6860     1.1790    -2.3790 oh         1 8PZ      -0.568800
     27 C17         -2.3040     1.4580    -1.8920 c3         1 8PZ       0.088100
     28 O7          -2.8710     1.8460    -0.6390 oh         1 8PZ      -0.515800
     29 C18         -1.7530     0.0120    -1.8270 c3         1 8PZ       0.202800
     30 N5          -0.3790     0.0050    -1.3190 na         1 8PZ      -0.250000
     31 N6           1.8040     0.0010    -1.2950 nd         1 8PZ      -0.583100
     32 C19          0.0170    -0.0020     2.2990 ca         1 8PZ       0.728900
     33 N7           3.4500    -0.0000     1.3020 nv         1 8PZ      -1.073500
     34 H1           0.7880     0.0040    -3.1520 h5         1 8PZ       0.045800
     35 H2           4.1170     0.7070    -5.5260 ha         1 8PZ       0.134000
     36 H3           6.3780     1.5910    -5.9630 ha         1 8PZ       0.161500
     37 H4           7.6280     0.8530    -7.9550 ha         1 8PZ       0.163000
     38 H5           6.6150    -0.7640    -9.5170 ha         1 8PZ       0.161500
     39 H6           4.3540    -1.6500    -9.0810 ha         1 8PZ       0.134000
     40 H7           2.5750    -1.9850    -7.5660 hx         1 8PZ       0.129700
     41 H8           2.4220    -2.2090    -6.0380 hn         1 8PZ       0.484133
     42 H9           1.7380    -0.9420    -5.1640 hn         1 8PZ       0.484133
     43 H11          1.8460     0.2260    -8.4910 hc         1 8PZ       0.112200
     44 H12          1.7610     0.8510    -6.8380 hc         1 8PZ       0.112200
     45 H13         -0.6710     1.0230    -8.0280 hn         1 8PZ       0.361500
     46 H14         -3.6840     0.9070    -5.6330 h1         1 8PZ       0.088200
     47 H15         -1.9520     1.0990    -5.3330 h1         1 8PZ       0.088200
     48 H16         -3.7920    -0.6720    -3.6730 h1         1 8PZ       0.085700
     49 H17         -3.8390     0.3570    -3.0980 h1         1 8PZ       0.415700
     50 H18         -4.6940     1.9390    -2.9370 ho         1 8PZ       0.513000
     51 H19         -1.5300     2.1490    -2.2030 h1         1 8PZ       0.073700
     52 H20         -2.2000     2.4590    -0.8910 ho         1 8PZ       0.418000
     53 H21         -2.3950    -0.6110    -1.2150 h2         1 8PZ       0.118700
     54 H22         -0.5980    -0.1360     3.1800 h5         1 8PZ       0.079100
     55 H23          3.9490    -0.8670     1.3380 hn         1 8PZ       0.449300
     56 H24          3.9490     0.8660     1.3420 hn         1 8PZ       0.449300
     57 H33          3.4100    -1.2720    -5.0460 hn         1 8PZ       0.484133
     58 O4          -2.5350    -0.7670    -5.9840 os         1 8PZ      -0.551500
@<TRIPOS>BOND
     1    10     9 ar
     2    10    11 ar
     3     9     8 ar
     4    33     3 1
     5    11    12 ar
     6     8     7 ar
     7     3     5 ar
     8     3     2 ar
     9     5    32 ar
    10     2    31 1
    11     2     1 ar
    12    12     7 ar
    13    12    13 1
    14    31     4 2
    15    32     6 ar
    16     1     6 ar
    17     1    30 1
    18     4    30 1
    19    13    14 1
    20    13    15 1
    21    30    29 1
    22    26    25 1
    23    25    27 1
    24    25    23 1
    25    27    29 1
    26    27    28 1
    27    15    16 1
    28    29    24 1
    29    23    22 1
    30    23    24 1
    31    22    58 1
    32    16    18 1
    33    16    17 2
    34    18    19 1
    35    58    19 1
    36    20    19 2
    37    19    21 2
    38     4    34 1
    39     7    35 1
    40     8    36 1
    41     9    37 1
    42    10    38 1
    43    11    39 1
    44    13    40 1
    45    14    41 1
    46    14    42 1
    47    15    43 1
    48    15    44 1
    49    18    45 1
    50    22    46 1
    51    22    47 1
    52    23    48 1
    53    25    49 1
    54    26    50 1
    55    27    51 1
    56    28    52 1
    57    29    53 1
    58    32    54 1
    59    33    55 1
    60    33    56 1
    61    57    14 1
@<TRIPOS>SUBSTRUCTURE
     1 8PZ         1 TEMP              0 ****  ****    0 ROOT
