@<TRIPOS>MOLECULE
8PZ
   58    62     1     0     0
SMALL
bcc


@<TRIPOS>ATOM
      1 C1           0.0000     0.0000     0.0000 c2         1 8PZ      -0.150000
      2 C2           1.4050     0.0000     0.0000 c2         1 8PZ      -0.199000
      3 C3           2.0680     0.0000     1.2400 c2         1 8PZ       0.086000
      4 C4           0.7580     0.0030    -2.0690 c2         1 8PZ      -0.224000
      5 N1           1.3370    -0.0010     2.3500 n2         1 8PZ      -0.104000
      6 N2          -0.6470    -0.0010     1.1620 n2         1 8PZ      -0.085000
      7 C5           4.6650     0.3840    -6.4040 ca         1 8PZ      -0.082500
      8 C6           5.9340     0.8780    -6.6470 ca         1 8PZ      -0.066500
      9 C7           6.6340     0.4650    -7.7650 ca         1 8PZ      -0.046000
     10 C8           6.0670    -0.4420    -8.6400 ca         1 8PZ      -0.066500
     11 C9           4.7980    -0.9370    -8.3970 ca         1 8PZ      -0.082500
     12 C10          4.1010    -0.5280    -7.2760 ca         1 8PZ      -0.198000
     13 C11          2.7170    -1.0660    -7.0110 c3         1 8PZ      -0.156000
     14 N3           2.5630    -1.3330    -5.5750 nz         1 8PZ       0.716000
     15 C12          1.6760    -0.0360    -7.4540 c3         1 8PZ      -0.160000
     16 C13          0.2960    -0.6230    -7.3030 c2         1 8PZ       0.288000
     17 O1           0.1590    -1.7520    -6.8830 o          1 8PZ      -0.391000
     18 N4          -0.7870     0.1100    -7.6350 ns         1 8PZ      -0.503000
     19 S1          -2.3030    -0.5340    -7.4700 s6         1 8PZ       2.467000
     20 O2          -3.2150     0.4820    -7.8640 o          1 8PZ      -0.831500
     21 O3          -2.2620    -1.8200    -8.0760 o          1 8PZ      -0.831500
     22 C14         -2.7960     0.4260    -5.2430 c3         1 8PZ       0.121000
     23 C15         -3.0120     0.0740    -3.7690 DU         1 8PZ       0.073000
     24 O5          -1.7890    -0.4250    -3.2020 os         1 8PZ      -0.257000
     25 C16         -3.3990     1.3400    -2.9800 c3         1 8PZ      -0.516000
     26 O6          -4.6860     1.1790    -2.3790 oh         1 8PZ      -0.293000
     27 C17         -2.3040     1.4580    -1.8920 c3         1 8PZ       0.027000
     28 O7          -2.8710     1.8460    -0.6390 oh         1 8PZ      -0.251000
     29 C18         -1.7530     0.0120    -1.8270 c3         1 8PZ       0.006000
     30 N5          -0.3790     0.0050    -1.3190 na         1 8PZ       0.298000
     31 N6           1.8040     0.0010    -1.2950 n2         1 8PZ      -0.072000
     32 C19          0.0170    -0.0020     2.2990 c2         1 8PZ       0.002000
     33 N7           3.4500    -0.0000     1.3020 nv         1 8PZ      -0.044000
     34 H1           0.7880     0.0040    -3.1520 h5         1 8PZ       0.128000
     35 H2           4.1170     0.7070    -5.5260 ha         1 8PZ       0.105500
     36 H3           6.3780     1.5910    -5.9630 ha         1 8PZ       0.126500
     37 H4           7.6280     0.8530    -7.9550 ha         1 8PZ       0.126000
     38 H5           6.6150    -0.7640    -9.5170 ha         1 8PZ       0.126500
     39 H6           4.3540    -1.6500    -9.0810 ha         1 8PZ       0.105500
     40 H7           2.5750    -1.9850    -7.5660 hx         1 8PZ       0.144000
     41 H8           2.4220    -2.2090    -6.0380 hn         1 8PZ       0.064000
     42 H9           1.7380    -0.9420    -5.1640 hn         1 8PZ       0.064000
     43 H11          1.8460     0.2260    -8.4910 hc         1 8PZ       0.110000
     44 H12          1.7610     0.8510    -6.8380 hc         1 8PZ       0.110000
     45 H13         -0.6710     1.0230    -8.0280 hn         1 8PZ       0.163000
     46 H14         -3.6840     0.9070    -5.6330 h1         1 8PZ       0.076000
     47 H15         -1.9520     1.0990    -5.3330 h1         1 8PZ       0.076000
     48 H16         -3.7920    -0.6720    -3.6730 ha         1 8PZ       0.081000
     49 H17         -3.8390     0.3570    -3.0980 DU         1 8PZ       0.409000
     50 H18         -4.6940     1.9390    -2.9370 ho         1 8PZ       0.323000
     51 H19         -1.5300     2.1490    -2.2030 h1         1 8PZ       0.074000
     52 H20         -2.2000     2.4590    -0.8910 ho         1 8PZ       0.216000
     53 H21         -2.3950    -0.6110    -1.2150 h2         1 8PZ       0.118000
     54 H22         -0.5980    -0.1360     3.1800 h5         1 8PZ       0.149000
     55 H23          3.9490    -0.8670     1.3380 hn         1 8PZ       0.082000
     56 H24          3.9490     0.8660     1.3420 hn         1 8PZ       0.082000
     57 H33          3.4100    -1.2720    -5.0460 hn         1 8PZ       0.064000
     58 O4          -2.5350    -0.7670    -5.9840 os         1 8PZ      -0.594000
@<TRIPOS>BOND
     1     1     2 1   
     2     1     6 1   
     3     1    30 1   
     4     2     3 1   
     5     2    31 1   
     6     3     5 1   
     7     3    33 1   
     8     4    30 1   
     9     4    31 1   
    10     4    34 1   
    11     5    32 1   
    12     6    32 1   
    13     7     8 1   
    14     7    12 1   
    15     7    35 1   
    16     8     9 1   
    17     8    36 1   
    18     9    10 1   
    19     9    37 1   
    20    10    11 1   
    21    10    38 1   
    22    11    12 1   
    23    11    39 1   
    24    12    13 1   
    25    13    14 1   
    26    13    15 1   
    27    13    40 1   
    28    14    41 1   
    29    14    42 1   
    30    14    57 1   
    31    15    16 1   
    32    15    43 1   
    33    15    44 1   
    34    16    17 1   
    35    16    18 1   
    36    18    19 1   
    37    18    45 1   
    38    19    20 1   
    39    19    21 1   
    40    19    58 1   
    41    22    23 1   
    42    22    46 1   
    43    22    47 1   
    44    22    58 1   
    45    23    24 1   
    46    23    25 1   
    47    23    48 1   
    48    23    49 1   
    49    24    29 1   
    50    25    26 1   
    51    25    27 1   
    52    25    49 1   
    53    26    50 1   
    54    27    28 1   
    55    27    29 1   
    56    27    51 1   
    57    28    52 1   
    58    29    30 1   
    59    29    53 1   
    60    32    54 1   
    61    33    55 1   
    62    33    56 1   
@<TRIPOS>SUBSTRUCTURE
     1 8PZ         1 TEMP              0 ****  ****    0 ROOT
