@<TRIPOS>MOLECULE
molecule
   78    77     1     0     0
SMALL
bcc


@<TRIPOS>ATOM
      1 O4           0.0000     0.0000     0.0000 o          1 8Q1      -0.540100
      2 C16          0.8240    -0.0040   -13.7450 c3         1 8Q1      -0.092100
      3 O3          -0.8840    -5.1780    13.4730 o          1 8Q1      -0.909833
      4 C15          0.0590    -0.0040   -12.4200 c3         1 8Q1      -0.084400
      5 C14          1.0520    -0.0040   -11.2570 c3         1 8Q1      -0.081400
      6 C13          0.2870    -0.0030    -9.9320 c3         1 8Q1      -0.082400
      7 O2          -2.6030    -6.4720    12.1530 o          1 8Q1      -0.909833
      8 C12          1.2810    -0.0030    -8.7690 c3         1 8Q1      -0.082400
      9 C11          0.5150    -0.0020    -7.4440 c3         1 8Q1      -0.082400
     10 C10          1.5100    -0.0020    -6.2810 c3         1 8Q1      -0.082400
     11 C9           0.7440    -0.0020    -4.9570 c3         1 8Q1      -0.080400
     12 C8           1.7390    -0.0010    -3.7930 c3         1 8Q1      -0.084400
     13 C7           0.9730    -0.0000    -2.4680 c3         1 8Q1      -0.071400
     14 C6           1.9680    -0.0010    -1.3050 c3         1 8Q1      -0.163400
     15 C1           1.2140     0.0000     0.0000 c          1 8Q1       0.562700
     16 C29         -2.9530    -1.4890    11.8900 c3         1 8Q1      -0.068000
     17 C30         -3.5860    -1.6700    10.5090 c3         1 8Q1      -0.067100
     18 C31         -4.0300    -1.6390    12.9680 c3         1 8Q1      -0.067100
     19 C32         -2.3270    -0.0960    11.9860 c3         1 8Q1       0.088100
     20 C34         -1.1770     0.0040    11.0180 c          1 8Q1       0.643100
     21 C37         -0.2880     0.0040     8.7490 c3         1 8Q1       0.128000
     22 C38         -0.8240     0.0030     7.3170 c3         1 8Q1      -0.173400
     23 C39          0.3300     0.0020     6.3480 c          1 8Q1       0.665100
     24 C42          1.2190     0.0020     4.0790 c3         1 8Q1       0.127000
     25 C43          0.6830     0.0010     2.6460 c3         1 8Q1      -0.009300
     26 N36         -1.4100     0.0040     9.6910 ns         1 8Q1      -0.599900
     27 N41          0.0960     0.0020     5.0200 ns         1 8Q1      -0.599900
     28 O27         -2.4560    -3.8510    12.0110 os         1 8Q1      -0.585200
     29 O33         -1.8520     0.1230    13.3150 oh         1 8Q1      -0.552800
     30 O35         -0.0400     0.0860    11.4330 o          1 8Q1      -0.589100
     31 O40          1.4700     0.0030     6.7620 o          1 8Q1      -0.590100
     32 P24         -1.6070    -5.2080    12.1810 p5         1 8Q1       1.179900
     33 S44          2.0700     0.0000     1.4820 ss         1 8Q1      -0.250700
     34 O1          -0.5460    -5.3320    10.9760 o          1 8Q1      -0.909833
     35 H1           1.4360    -0.8960   -13.8080 hc         1 8Q1       0.031367
     36 H2           1.4580     0.8730   -13.7960 hc         1 8Q1       0.031367
     37 H3           0.1200     0.0100   -14.5680 hc         1 8Q1       0.031367
     38 H4          -0.5640     0.8810   -12.3630 hc         1 8Q1       0.040200
     39 H5          -0.5650    -0.8880   -12.3630 hc         1 8Q1       0.040200
     40 H6           1.6750     0.8800   -11.3140 hc         1 8Q1       0.040200
     41 H7           1.6740    -0.8880   -11.3140 hc         1 8Q1       0.040200
     42 H8          -0.3350    -0.8880    -9.8740 hc         1 8Q1       0.041200
     43 H9          -0.3360     0.8810    -9.8750 hc         1 8Q1       0.041200
     44 H11          1.9040    -0.8870    -8.8250 hc         1 8Q1       0.040200
     45 H12          1.9040     0.8820    -8.8260 hc         1 8Q1       0.040200
     46 H13         -0.1080    -0.8860    -7.3860 hc         1 8Q1       0.041700
     47 H14         -0.1070     0.8830    -7.3870 hc         1 8Q1       0.041700
     48 H15          2.1330     0.8820    -6.3380 hc         1 8Q1       0.040200
     49 H16          2.1320    -0.8870    -6.3380 hc         1 8Q1       0.040200
     50 H17          0.1220     0.8830    -4.9000 hc         1 8Q1       0.044200
     51 H18          0.1210    -0.8860    -4.8990 hc         1 8Q1       0.044200
     52 H19          2.3620    -0.8860    -3.8500 hc         1 8Q1       0.039200
     53 H20          2.3620     0.8830    -3.8510 hc         1 8Q1       0.039200
     54 H21          0.3500    -0.8850    -2.4110 hc         1 8Q1       0.056700
     55 H22          0.3510     0.8850    -2.4110 hc         1 8Q1       0.056700
     56 H23          2.5900    -0.8860    -1.3620 hc         1 8Q1       0.070700
     57 H24          2.5910     0.8830    -1.3630 hc         1 8Q1       0.070700
     58 H25         -1.1090    -2.4440    11.3370 h1         1 8Q1       0.030200
     59 H26         -1.4230    -2.4210    13.0780 h1         1 8Q1       0.030200
     60 H27         -3.9920    -0.7250    10.1710 hc         1 8Q1       0.028533
     61 H28         -4.3810    -2.4030    10.5700 hc         1 8Q1       0.028533
     62 H29         -2.8330    -2.0110     9.8090 hc         1 8Q1       0.028533
     63 H30         -4.6090    -2.5350    12.7770 hc         1 8Q1       0.028533
     64 H31         -4.6830    -0.7760    12.9480 hc         1 8Q1       0.028533
     65 H32         -3.5590    -1.7140    13.9410 hc         1 8Q1       0.028533
     66 H33         -3.0710     0.6520    11.7410 h1         1 8Q1       0.005700
     67 H34          0.3160     0.8890     8.9080 h1         1 8Q1       0.072200
     68 H35          0.3170    -0.8800     8.9090 h1         1 8Q1       0.072200
     69 H36         -1.4300    -0.8810     7.1580 hc         1 8Q1       0.062200
     70 H37         -1.4290     0.8880     7.1570 hc         1 8Q1       0.062200
     71 H38          1.8240     0.8860     4.2380 h1         1 8Q1       0.063700
     72 H39          1.8240    -0.8830     4.2380 h1         1 8Q1       0.063700
     73 H40          0.0790     0.8860     2.4860 h1         1 8Q1       0.078700
     74 H41          0.0780    -0.8830     2.4870 h1         1 8Q1       0.078700
     75 H42         -2.3490     0.0610     9.3490 hn         1 8Q1       0.306500
     76 H43         -0.8440     0.0260     4.6780 hn         1 8Q1       0.310500
     77 H44         -1.8590     1.0470    13.5040 ho         1 8Q1       0.374000
     78 C28         -1.8710    -2.5500    12.1000 c3         1 8Q1       0.229400
@<TRIPOS>BOND
     1     3    32 1
     2     7    32 1
     3    32    28 1
     4    28    78 1
     5    78    16 1
     6    29    19 1
     7    17    16 1
     8    16    19 1
     9    16    18 1
    10    19    20 1
    11    30    20 2
    12    20    26 1
    13    26    21 1
    14     2     4 1
    15     5     4 1
    16     5     6 1
    17    24    27 1
    18    24    25 1
    19    21    22 1
    20    33    25 1
    21    33    15 1
    22    31    23 2
    23     8     6 1
    24     8     9 1
    25    27    23 1
    26    23    22 1
    27    10     9 1
    28    10    11 1
    29    12    13 1
    30    12    11 1
    31    15    14 1
    32    15     1 2
    33    13    14 1
    34    32    34 1
    35     2    35 1
    36     2    36 1
    37     2    37 1
    38     4    38 1
    39     4    39 1
    40     5    40 1
    41     5    41 1
    42     6    42 1
    43     6    43 1
    44     8    44 1
    45     8    45 1
    46     9    46 1
    47     9    47 1
    48    10    48 1
    49    10    49 1
    50    11    50 1
    51    11    51 1
    52    12    52 1
    53    12    53 1
    54    13    54 1
    55    13    55 1
    56    14    56 1
    57    14    57 1
    58    78    58 1
    59    78    59 1
    60    17    60 1
    61    17    61 1
    62    17    62 1
    63    18    63 1
    64    18    64 1
    65    18    65 1
    66    19    66 1
    67    21    67 1
    68    21    68 1
    69    22    69 1
    70    22    70 1
    71    24    71 1
    72    24    72 1
    73    25    73 1
    74    25    74 1
    75    26    75 1
    76    27    76 1
    77    29    77 1
@<TRIPOS>SUBSTRUCTURE
     1 8Q1         1 TEMP              0 ****  ****    0 ROOT
