@<TRIPOS>MOLECULE
8Q4
   47    48     1     0     0
SMALL
bcc


@<TRIPOS>ATOM
      1 C13          0.0000     0.0000     0.0000 c3         1 8Q4      -0.028100
      2 O1          -1.1420     4.1170     5.0420 os         1 8Q4      -0.376200
      3 C2           1.3370    -1.7320    -1.7960 ca         1 8Q4      -0.095000
      4 C1           2.0320    -1.2310    -0.7110 ca         1 8Q4      -0.083300
      5 C12          2.0390     1.2490    -0.7220 c3         1 8Q4      -0.028100
      6 C5           3.6480    -2.9920    -0.9360 ca         1 8Q4      -0.046800
      7 C18          0.4950     2.5790     4.2610 ca         1 8Q4      -0.128000
      8 C4           2.9420    -3.4940    -2.0310 ca         1 8Q4      -0.101000
      9 O3          -0.2860     5.7880     3.8590 o          1 8Q4      -0.612500
     10 O4           1.0390     1.9500     1.7970 o          1 8Q4      -0.662100
     11 C17          1.7670     2.0350     4.3570 ca         1 8Q4      -0.076400
     12 C3           1.7910    -2.8610    -2.4540 ca         1 8Q4      -0.100000
     13 C6           3.1840    -1.8530    -0.2770 ca         1 8Q4      -0.102000
     14 C7           4.8820    -3.6650    -0.4780 ce         1 8Q4      -0.076400
     15 C8           4.8150    -5.0630     0.0800 c3         1 8Q4       0.061100
     16 C9           6.0470    -3.0380    -0.5570 c2         1 8Q4      -0.169000
     17 C10          1.7180     1.0250     2.2020 c          1 8Q4       0.562100
     18 C11          1.5290     0.0000     0.0000 c3         1 8Q4       0.094700
     19 C19          0.1040     3.5810     5.1340 ca         1 8Q4       0.235100
     20 C20          0.9870     4.0400     6.1030 ca         1 8Q4      -0.069600
     21 C21          2.2560     3.4970     6.1960 ca         1 8Q4      -0.083000
     22 C22          2.6450     2.4930     5.3310 ca         1 8Q4      -0.178000
     23 C24         -1.2710     5.2450     4.3200 c          1 8Q4       0.573100
     24 N3           2.0180     0.0000     1.3810 ns         1 8Q4      -0.244900
     25 N4           2.1660     1.0250     3.4730 ns         1 8Q4      -0.053100
     26 O25         -2.4900     5.7720     4.1060 o          1 8Q4      -0.612500
     27 Cl           0.4990     5.2970     7.1960 cl         1 8Q4      -0.027400
     28 H1          -0.3610     0.1150    -1.0150 hc         1 8Q4       0.023367
     29 H2          -0.3610     0.8210     0.6070 hc         1 8Q4       0.023367
     30 H3          -0.3610    -0.9360     0.4080 hc         1 8Q4       0.023367
     31 H4           0.4330    -1.2400    -2.1320 ha         1 8Q4       0.120000
     32 H5           2.9860     1.5520    -0.2930 hc         1 8Q4       0.023367
     33 H6           1.3190     2.0500    -0.6100 hc         1 8Q4       0.023367
     34 H7           2.1730     1.0280    -1.7740 hc         1 8Q4       0.023367
     35 H8          -0.1910     2.2230     3.5020 ha         1 8Q4       0.149000
     36 H9           3.2970    -4.3780    -2.5470 ha         1 8Q4       0.103000
     37 H10          1.2420    -3.2490    -3.3040 ha         1 8Q4       0.100000
     38 H11          3.7270    -1.4590     0.5730 ha         1 8Q4       0.116000
     39 H12          5.4050    -5.1190     0.9870 hc         1 8Q4       0.006700
     40 H13          3.7850    -5.3140     0.3040 hc         1 8Q4       0.006700
     41 H14          5.2060    -5.7620    -0.6490 hc         1 8Q4       0.006700
     42 H15          6.0950    -2.0320    -0.9590 ha         1 8Q4       0.089000
     43 H16          6.9520    -3.5300    -0.2220 ha         1 8Q4       0.089000
     44 H17          2.9420     3.8540     6.9540 ha         1 8Q4       0.096000
     45 H18          3.6390     2.0690     5.4060 ha         1 8Q4       0.090000
     46 H19          2.5440    -0.7790     1.7250 hn         1 8Q4       0.171500
     47 H20          2.7740     0.2950     3.7890 hn         1 8Q4       0.146500
@<TRIPOS>BOND
     1     1    18 1   
     2     1    28 1   
     3     1    29 1   
     4     1    30 1   
     5     2    19 1   
     6     2    23 1   
     7     3     4 ar  
     8     3    12 ar  
     9     3    31 1   
    10     4    13 ar  
    11     4    18 1   
    12     5    18 1   
    13     5    32 1   
    14     5    33 1   
    15     5    34 1   
    16     6     8 ar  
    17     6    13 ar  
    18     6    14 1   
    19     7    11 ar  
    20     7    19 ar  
    21     7    35 1   
    22     8    12 ar  
    23     8    36 1   
    24     9    23 1   
    25    10    17 2   
    26    11    22 ar  
    27    11    25 1   
    28    12    37 1   
    29    13    38 1   
    30    14    15 1   
    31    14    16 2   
    32    15    39 1   
    33    15    40 1   
    34    15    41 1   
    35    16    42 1   
    36    16    43 1   
    37    17    24 1   
    38    17    25 1   
    39    18    24 1   
    40    19    20 ar  
    41    20    21 ar  
    42    20    27 1   
    43    21    22 ar  
    44    21    44 1   
    45    22    45 1   
    46    23    26 1   
    47    24    46 1   
    48    25    47 1   
@<TRIPOS>SUBSTRUCTURE
     1 8Q4         1 TEMP              0 ****  ****    0 ROOT
