@<TRIPOS>MOLECULE
molecule
   47    48     1     0     0
SMALL
bcc


@<TRIPOS>ATOM
      1 C13          0.0000     0.0000     0.0000 c3         1 8Q4      -0.101100
      2 O1          -1.1420     4.1170     5.0420 os         1 8Q4      -0.390200
      3 C2           1.3370    -1.7320    -1.7960 ca         1 8Q4      -0.118000
      4 C1           2.0320    -1.2310    -0.7110 ca         1 8Q4      -0.077300
      5 C12          2.0390     1.2490    -0.7220 c3         1 8Q4      -0.101100
      6 C5           3.6480    -2.9920    -0.9360 ca         1 8Q4      -0.054800
      7 C18          0.4950     2.5790     4.2610 ca         1 8Q4      -0.145000
      8 C4           2.9420    -3.4940    -2.0310 ca         1 8Q4      -0.125000
      9 O3          -0.2860     5.7880     3.8590 o          1 8Q4      -0.553500
     10 O4           1.0390     1.9500     1.7970 o          1 8Q4      -0.620100
     11 C17          1.7670     2.0350     4.3570 ca         1 8Q4       0.070600
     12 C3           1.7910    -2.8610    -2.4540 ca         1 8Q4      -0.129000
     13 C6           3.1840    -1.8530    -0.2770 ca         1 8Q4      -0.120000
     14 C7           4.8820    -3.6650    -0.4780 ce         1 8Q4      -0.075400
     15 C8           4.8150    -5.0630     0.0800 c3         1 8Q4      -0.050900
     16 C9           6.0470    -3.0380    -0.5570 c2         1 8Q4      -0.216000
     17 C10          1.7180     1.0250     2.2020 c          1 8Q4       0.775100
     18 C11          1.5290     0.0000     0.0000 c3         1 8Q4       0.191700
     19 C19          0.1040     3.5810     5.1340 ca         1 8Q4       0.221100
     20 C20          0.9870     4.0400     6.1030 ca         1 8Q4      -0.003600
     21 C21          2.2560     3.4970     6.1960 ca         1 8Q4      -0.106000
     22 C22          2.6450     2.4930     5.3310 ca         1 8Q4      -0.199000
     23 C24         -1.2710     5.2450     4.3200 c          1 8Q4       0.473100
     24 N3           2.0180     0.0000     1.3810 ns         1 8Q4      -0.608900
     25 N4           2.1660     1.0250     3.4730 ns         1 8Q4      -0.491100
     26 O25         -2.4900     5.7720     4.1060 o          1 8Q4      -0.553500
     27 Cl           0.4990     5.2970     7.1960 cl         1 8Q4      -0.108400
     28 H1          -0.3610     0.8190     0.6100 hc         1 8Q4       0.051367
     29 H2          -0.3610     0.1180    -1.0140 hc         1 8Q4       0.051367
     30 H3          -0.3610    -0.9380     0.4050 hc         1 8Q4       0.051367
     31 H4           0.4330    -1.2400    -2.1320 ha         1 8Q4       0.140000
     32 H5           2.1830     1.0250    -1.7720 hc         1 8Q4       0.051367
     33 H6           1.3130     2.0470    -0.6190 hc         1 8Q4       0.051367
     34 H7           2.9810     1.5590    -0.2860 hc         1 8Q4       0.051367
     35 H8          -0.1910     2.2230     3.5020 ha         1 8Q4       0.172000
     36 H9           3.2970    -4.3780    -2.5460 ha         1 8Q4       0.128000
     37 H10          1.2420    -3.2490    -3.3040 ha         1 8Q4       0.127000
     38 H11          3.7270    -1.4590     0.5730 ha         1 8Q4       0.135000
     39 H12          3.7850    -5.3140     0.3040 hc         1 8Q4       0.041700
     40 H13          5.4050    -5.1190     0.9870 hc         1 8Q4       0.041700
     41 H14          5.2060    -5.7620    -0.6490 hc         1 8Q4       0.041700
     42 H15          6.9520    -3.5300    -0.2210 ha         1 8Q4       0.116500
     43 H16          6.0950    -2.0320    -0.9580 ha         1 8Q4       0.116500
     44 H17          2.9420     3.8540     6.9540 ha         1 8Q4       0.125000
     45 H18          3.6390     2.0690     5.4060 ha         1 8Q4       0.111000
     46 H19          2.5500    -0.7760     1.7230 hn         1 8Q4       0.303500
     47 H20          2.7840     0.3020     3.7860 hn         1 8Q4       0.303500
@<TRIPOS>BOND
     1    27    20 1
     2     2    23 1
     3     2    19 1
     4     9    23 1
     5    23    26 1
     6    20    19 ar
     7    20    21 ar
     8    19     7 ar
     9    21    22 ar
    10     7    11 ar
    11    22    11 ar
    12    11    25 1
    13    10    17 2
    14    25    17 1
    15    17    24 1
    16     5    18 1
    17    24    18 1
    18    18     4 1
    19    18     1 1
    20     3     4 ar
    21     3    12 ar
    22     4    13 ar
    23    12     8 ar
    24    13     6 ar
    25     8     6 ar
    26     6    14 1
    27    14    16 2
    28    14    15 1
    29     1    28 1
    30     1    29 1
    31     1    30 1
    32     3    31 1
    33     5    32 1
    34     5    33 1
    35     5    34 1
    36     7    35 1
    37     8    36 1
    38    12    37 1
    39    13    38 1
    40    15    39 1
    41    15    40 1
    42    15    41 1
    43    16    42 1
    44    16    43 1
    45    21    44 1
    46    22    45 1
    47    24    46 1
    48    25    47 1
@<TRIPOS>SUBSTRUCTURE
     1 8Q4         1 TEMP              0 ****  ****    0 ROOT
