@<TRIPOS>MOLECULE
8Q5
   49    52     1     0     0
SMALL
bcc


@<TRIPOS>ATOM
      1 OAZ          0.0000     0.0000     0.0000 o          1 8Q5      -0.648100
      2 CAU          1.2160     0.0000     0.0000 c          1 8Q5       0.597700
      3 NAV          1.8890     0.0000     1.1680 ns         1 8Q5      -0.143900
      4 CAW          1.1560     0.0050     2.4360 cx         1 8Q5      -0.045300
      5 CAY          1.8650    -0.5670     3.6650 cx         1 8Q5      -0.094900
      6 CAX          1.6550     0.9430     3.5370 cx         1 8Q5      -0.094900
      7 CAR          1.9540    -0.0050    -1.2770 ca         1 8Q5      -0.170600
      8 CAQ          3.3530    -0.0110    -1.2750 ca         1 8Q5      -0.044500
      9 CAP          4.0360    -0.0160    -2.4580 ca         1 8Q5      -0.130500
     10 CAO          3.3380    -0.0150    -3.6690 ca         1 8Q5       0.049200
     11 CAT          1.9390    -0.0090    -3.6700 ca         1 8Q5      -0.130500
     12 CAS          1.2550    -0.0110    -2.4880 ca         1 8Q5      -0.044500
     13 CAN          4.0760    -0.0200    -4.9460 cc         1 8Q5      -0.372300
     14 NAD          3.6050     0.3860    -6.1660 na         1 8Q5       0.718700
     15 CAC          2.4060     0.8900    -6.5940 cc         1 8Q5      -0.530600
     16 CAB          2.2340     1.2070    -7.8940 cd         1 8Q5       0.500200
     17 NAA          3.2170     1.0410    -8.7840 nd         1 8Q5      -0.726000
     18 CAF          4.3900     0.5600    -8.4240 cc         1 8Q5       0.593200
     19 CAE          4.6190     0.2120    -7.0700 cc         1 8Q5      -0.420600
     20 NAL          5.6700    -0.2810    -6.4320 nd         1 8Q5      -0.230600
     21 CAM          5.3800    -0.4300    -5.1440 cd         1 8Q5       0.055600
     22 NAG          5.3950     0.3960    -9.3660 nu         1 8Q5      -0.452900
     23 CAH          5.1530     0.7570   -10.7650 c3         1 8Q5       0.155800
     24 CAI          6.4130     0.4810   -11.5870 c3         1 8Q5      -0.068700
     25 CAJ          6.1220     0.7400   -13.0680 c3         1 8Q5       0.005400
     26 CAK          7.5400     1.4040   -11.1200 c3         1 8Q5       0.005400
     27 H1           2.8900    -0.0070     1.1690 hn         1 8Q5       0.174500
     28 H2           0.0830    -0.1450     2.4210 h1         1 8Q5       0.098700
     29 H3           2.8780    -0.9140     3.5010 hc         1 8Q5       0.047950
     30 H4           1.2270    -1.0690     4.3820 hc         1 8Q5       0.047950
     31 H5           0.8880     1.3640     4.1760 hc         1 8Q5       0.047950
     32 H6           2.5400     1.5200     3.2950 hc         1 8Q5       0.047950
     33 H7           3.8940    -0.0120    -0.3370 ha         1 8Q5       0.114500
     34 H8           5.1200    -0.0210    -2.4570 ha         1 8Q5       0.116000
     35 H9           1.3970    -0.0110    -4.6080 ha         1 8Q5       0.116000
     36 H10          0.1720    -0.0060    -2.4890 ha         1 8Q5       0.114500
     37 H11          1.5950     1.0340    -5.8900 h4         1 8Q5       0.164000
     38 H12          1.2820     1.6050    -8.2220 h4         1 8Q5      -0.013900
     39 H13          6.0470    -0.8180    -4.3840 h4         1 8Q5       0.144000
     40 H14          6.2690    -0.0120    -9.0990 hn         1 8Q5       0.314800
     41 H15          4.9040     1.8100   -10.8290 h1         1 8Q5       0.031200
     42 H16          4.3320     0.1670   -11.1540 h1         1 8Q5       0.031200
     43 H17          6.7130    -0.5510   -11.4530 hc         1 8Q5       0.028700
     44 H18          5.8540     1.7800   -13.2060 hc         1 8Q5       0.007033
     45 H19          5.3020     0.1100   -13.3900 hc         1 8Q5       0.007033
     46 H20          7.0050     0.5130   -13.6540 hc         1 8Q5       0.007033
     47 H21          8.2700     1.5130   -11.9130 hc         1 8Q5       0.007033
     48 H22          7.1310     2.3750   -10.8700 hc         1 8Q5       0.007033
     49 H23          8.0180     0.9770   -10.2460 hc         1 8Q5       0.007033
@<TRIPOS>BOND
     1     1     2 2   
     2     2     3 1   
     3     2     7 1   
     4     3     4 1   
     5     3    27 1   
     6     4     5 1   
     7     4     6 1   
     8     4    28 1   
     9     5     6 1   
    10     5    29 1   
    11     5    30 1   
    12     6    31 1   
    13     6    32 1   
    14     7     8 ar  
    15     7    12 ar  
    16     8     9 ar  
    17     8    33 1   
    18     9    10 ar  
    19     9    34 1   
    20    10    11 ar  
    21    10    13 1   
    22    11    12 ar  
    23    11    35 1   
    24    12    36 1   
    25    13    14 1   
    26    13    21 2   
    27    14    15 1   
    28    14    19 1   
    29    15    16 2   
    30    15    37 1   
    31    16    17 1   
    32    16    38 1   
    33    17    18 2   
    34    18    19 1   
    35    18    22 1   
    36    19    20 2   
    37    20    21 1   
    38    21    39 1   
    39    22    23 1   
    40    22    40 1   
    41    23    24 1   
    42    23    41 1   
    43    23    42 1   
    44    24    25 1   
    45    24    26 1   
    46    24    43 1   
    47    25    44 1   
    48    25    45 1   
    49    25    46 1   
    50    26    47 1   
    51    26    48 1   
    52    26    49 1   
@<TRIPOS>SUBSTRUCTURE
     1 8Q5         1 TEMP              0 ****  ****    0 ROOT
