@<TRIPOS>MOLECULE
8Q6
   48    49     1     0     0
SMALL
bcc


@<TRIPOS>ATOM
      1 CAA          0.0000     0.0000     0.0000 c3         1 8Q6      -0.001100
      2 CAB          6.8130     3.2280     9.0030 c3         1 8Q6       0.271700
      3 CAC          1.9790    -2.2620    10.9500 c3         1 8Q6       0.271700
      4 CAD          8.3780     0.0030     1.5430 c3         1 8Q6      -0.092100
      5 CAH          5.5090     0.0010     0.9710 ca         1 8Q6      -0.040000
      6 CAI          4.1670    -0.0000     0.6610 ca         1 8Q6      -0.246000
      7 CAJ          4.0030     0.9760     5.7150 ca         1 8Q6      -0.055000
      8 CAK          2.4720    -0.7710     6.3330 ca         1 8Q6      -0.055000
      9 CAL          3.8180     0.3010     8.0270 ca         1 8Q6      -0.036000
     10 CAM          4.9590    -0.0610     3.3310 ca         1 8Q6      -0.072000
     11 CAN          1.5290     0.0000     0.0000 c3         1 8Q6       0.224400
     12 CAT          5.4220     2.1030     7.4230 c          1 8Q6       0.719700
     13 CAU          2.2470    -1.5060     8.7010 c          1 8Q6       0.719700
     14 CAV          3.0440     0.0390     5.3630 ca         1 8Q6      -0.013400
     15 CAW          5.9180    -0.0300     2.3100 ca         1 8Q6      -0.208600
     16 CAX          4.3950     1.1090     7.0490 ca         1 8Q6      -0.135600
     17 CAY          2.8580    -0.6440     7.6690 ca         1 8Q6      -0.135600
     18 CAZ          3.6150    -0.0610     3.0100 ca         1 8Q6      -0.045400
     19 CBA          3.2160    -0.0310     1.6720 ca         1 8Q6       0.181100
     20 OAE          7.7010    -0.0570     3.8030 o          1 8Q6      -0.566100
     21 OAF          5.9250     2.8080     6.5700 o          1 8Q6      -0.584500
     22 OAG          1.4080    -2.3270     8.3890 o          1 8Q6      -0.584500
     23 OAP          5.8000     2.2310     8.7100 os         1 8Q6      -0.414900
     24 OAQ          2.6220    -1.3830     9.9890 os         1 8Q6      -0.414900
     25 OAR          2.0060     0.0000     1.3470 os         1 8Q6      -0.306900
     26 H1          -0.3610     0.8840     0.5110 hc         1 8Q6       0.013700
     27 H2          -0.3610    -0.8850     0.5100 hc         1 8Q6       0.013700
     28 H3          -0.3610     0.0010    -1.0210 hc         1 8Q6       0.013700
     29 H4           7.0240     3.2270    10.0660 h1         1 8Q6       0.001367
     30 H5           6.4530     4.2060     8.7080 h1         1 8Q6       0.001367
     31 H6           7.7180     2.9960     8.4560 h1         1 8Q6       0.001367
     32 H7           2.3680    -2.0610    11.9400 h1         1 8Q6       0.001367
     33 H8           2.1800    -3.2940    10.6860 h1         1 8Q6       0.001367
     34 H9           0.9100    -2.0890    10.9390 h1         1 8Q6       0.001367
     35 H10          8.2470     0.9010     0.9530 hc         1 8Q6       0.024367
     36 H11          9.3690     0.0000     1.9820 hc         1 8Q6       0.024367
     37 H12          8.2630    -0.8670     0.9080 hc         1 8Q6       0.024367
     38 H13          6.2480     0.0250     0.1800 ha         1 8Q6       0.106000
     39 H14          3.8530     0.0230    -0.3750 ha         1 8Q6       0.122000
     40 H15          4.4500     1.6060     4.9550 ha         1 8Q6       0.140000
     41 H16          1.7240    -1.5040     6.0530 ha         1 8Q6       0.140000
     42 H17          4.1200     0.4030     9.0620 ha         1 8Q6       0.132000
     43 H18          5.2710    -0.0850     4.3680 ha         1 8Q6       0.151000
     44 H19          1.8900     0.8850    -0.5110 h1         1 8Q6       0.003200
     45 H20          1.8900    -0.8850    -0.5110 h1         1 8Q6       0.003200
     46 H21          1.6840    -0.1900     3.7960 hn         1 8Q6       0.295800
     47 NAO          2.6530    -0.0910     4.0270 nu         1 8Q6      -0.228000
     48 CAS          7.3480    -0.0310     2.6430 c          1 8Q6       0.630700
@<TRIPOS>BOND
     1     1    11 1   
     2     1    26 1   
     3     1    27 1   
     4     1    28 1   
     5     2    23 1   
     6     2    29 1   
     7     2    30 1   
     8     2    31 1   
     9     3    24 1   
    10     3    32 1   
    11     3    33 1   
    12     3    34 1   
    13     4    35 1   
    14     4    36 1   
    15     4    37 1   
    16     4    48 1   
    17     5     6 ar  
    18     5    15 ar  
    19     5    38 1   
    20     6    19 ar  
    21     6    39 1   
    22     7    14 ar  
    23     7    16 ar  
    24     7    40 1   
    25     8    14 ar  
    26     8    17 ar  
    27     8    41 1   
    28     9    16 ar  
    29     9    17 ar  
    30     9    42 1   
    31    10    15 ar  
    32    10    18 ar  
    33    10    43 1   
    34    11    25 1   
    35    11    44 1   
    36    11    45 1   
    37    12    16 1   
    38    12    21 2   
    39    12    23 1   
    40    13    17 1   
    41    13    22 2   
    42    13    24 1   
    43    14    47 1   
    44    15    48 1   
    45    18    19 ar  
    46    18    47 1   
    47    19    25 1   
    48    20    48 2   
    49    46    47 1   
@<TRIPOS>SUBSTRUCTURE
     1 8Q6         1 TEMP              0 ****  ****    0 ROOT
