@<TRIPOS>MOLECULE
8Q7
   52    57     1     0     0
SMALL
bcc


@<TRIPOS>ATOM
      1 N1           0.0000     0.0000     0.0000 n          1 8Q7       0.115000
      2 C4           1.4190    -0.0010     2.3490 cc         1 8Q7       0.370000
      3 C6           1.3420     0.0000     0.0000 c          1 8Q7       0.492300
      4 C8           3.5490    -0.0050     2.7230 cd         1 8Q7       0.620900
      5 C13         -3.3880     0.0310     4.2150 c3         1 8Q7       0.158300
      6 C15         -1.5690     0.4650     5.9050 c3         1 8Q7       0.049000
      7 C20         -2.1150     2.0750    -1.3470 ca         1 8Q7      -0.038000
      8 C21         -2.3360     3.3770    -1.7490 ca         1 8Q7      -0.179500
      9 C22         -1.3960     4.0290    -2.5340 ca         1 8Q7       0.166100
     10 C24         -0.0180     2.0670    -2.5070 ca         1 8Q7      -0.038000
     11 C26         -0.6000     5.9180    -3.7390 c3         1 8Q7       0.243700
     12 C28         -4.6780    -1.7900     6.0060 cx         1 8Q7      -0.231700
     13 C23         -0.2350     3.3700    -2.9130 ca         1 8Q7      -0.179500
     14 C3          -0.0610     0.0050     2.3880 cc         1 8Q7      -0.211500
     15 C12         -0.9570     0.0070     3.5370 cc         1 8Q7      -0.014300
     16 C19         -0.9540     1.4210    -1.7190 ca         1 8Q7      -0.193300
     17 C11         -2.2510     0.0180     3.2080 cd         1 8Q7      -0.045400
     18 C2          -0.7280     0.0050     1.1840 cd         1 8Q7       0.014500
     19 C16         -0.4510    -0.0070     4.9730 c3         1 8Q7       0.026900
     20 C31         -5.9610    -1.3950     6.7420 cx         1 8Q7      -0.063400
     21 C30         -5.3020    -2.7470     7.0230 cx         1 8Q7       0.345600
     22 C18         -0.7150     0.0010    -1.2780 c3         1 8Q7       0.089300
     23 N7           2.3420    -0.0010     3.2870 nd         1 8Q7      -0.678000
     24 N9           3.4240     0.0000     1.4200 nc         1 8Q7      -0.627800
     25 N5           2.0500     0.0000     1.1390 n          1 8Q7       0.394500
     26 N14         -2.8120    -0.2330     5.5430 n          1 8Q7      -0.153800
     27 O17          1.9320    -0.0010    -1.0620 o          1 8Q7      -0.656500
     28 O29         -2.9130    -1.2910     7.4910 o          1 8Q7      -0.616100
     29 F32         -4.6460    -2.9030     8.2500 f          1 8Q7      -0.175800
     30 F33         -5.9380    -3.8910     6.5300 f          1 8Q7      -0.175800
     31 S10         -2.4620     0.0150     1.4660 ss         1 8Q7      -0.216800
     32 H1           4.4900    -0.0120     3.2600 h5         1 8Q7       0.029100
     33 H2          -4.1060    -0.7410     3.9670 h1         1 8Q7       0.032700
     34 H3          -3.8690     1.0020     4.2120 h1         1 8Q7       0.032700
     35 H4          -1.7080     1.5330     5.7920 h1         1 8Q7       0.042200
     36 H5          -1.3090     0.2330     6.9300 h1         1 8Q7       0.042200
     37 H6          -2.8480     1.5660    -0.7320 ha         1 8Q7       0.120500
     38 H7          -3.2440     3.8890    -1.4540 ha         1 8Q7       0.122500
     39 H8           0.8890     1.5530    -2.8000 ha         1 8Q7       0.120500
     40 H9          -0.4750     5.3470    -4.6510 h1         1 8Q7      -0.000633
     41 H10          0.3410     5.9550    -3.2040 h1         1 8Q7      -0.000633
     42 H11         -0.9170     6.9240    -3.9830 h1         1 8Q7      -0.000633
     43 H12         -4.8190    -2.0740     4.9700 hc         1 8Q7       0.084700
     44 H13          0.5000     3.8750    -3.5270 ha         1 8Q7       0.122500
     45 H14          0.3990     0.6590     5.0630 hc         1 8Q7       0.049200
     46 H15         -0.1570    -1.0150     5.2430 hc         1 8Q7       0.049200
     47 H16         -5.8440    -0.6470     7.5180 hc         1 8Q7       0.068200
     48 H17         -6.8680    -1.4310     6.1520 hc         1 8Q7       0.068200
     49 H18         -1.6650    -0.5060    -1.1610 h1         1 8Q7       0.051700
     50 H19         -0.1210    -0.5130    -2.0240 h1         1 8Q7       0.051700
     51 C27         -3.4050    -1.0870     6.4010 c          1 8Q7       0.628100
     52 O25         -1.6120     5.3100    -2.9320 os         1 8Q7      -0.306900
@<TRIPOS>BOND
     1     1     3 1   
     2     1    18 1   
     3     1    22 1   
     4     2    14 1   
     5     2    23 2   
     6     2    25 1   
     7     3    25 1   
     8     3    27 2   
     9     4    23 1   
    10     4    24 2   
    11     4    32 1   
    12     5    17 1   
    13     5    26 1   
    14     5    33 1   
    15     5    34 1   
    16     6    19 1   
    17     6    26 1   
    18     6    35 1   
    19     6    36 1   
    20     7     8 ar  
    21     7    16 ar  
    22     7    37 1   
    23     8     9 ar  
    24     8    38 1   
    25     9    13 ar  
    26     9    52 1   
    27    10    13 ar  
    28    10    16 ar  
    29    10    39 1   
    30    11    40 1   
    31    11    41 1   
    32    11    42 1   
    33    11    52 1   
    34    12    20 1   
    35    12    21 1   
    36    12    43 1   
    37    12    51 1   
    38    13    44 1   
    39    14    15 1   
    40    14    18 2   
    41    15    17 2   
    42    15    19 1   
    43    16    22 1   
    44    17    31 1   
    45    18    31 1   
    46    19    45 1   
    47    19    46 1   
    48    20    21 1   
    49    20    47 1   
    50    20    48 1   
    51    21    29 1   
    52    21    30 1   
    53    22    49 1   
    54    22    50 1   
    55    24    25 1   
    56    26    51 1   
    57    28    51 2   
@<TRIPOS>SUBSTRUCTURE
     1 8Q7         1 TEMP              0 ****  ****    0 ROOT
