@<TRIPOS>MOLECULE
molecule
   52    57     1     0     0
SMALL
bcc


@<TRIPOS>ATOM
      1 N1           0.0000     0.0000     0.0000 n          1 8Q7      -0.319000
      2 C4           1.4190    -0.0010     2.3490 cc         1 8Q7       0.551000
      3 C6           1.3420     0.0000     0.0000 c          1 8Q7       0.731300
      4 C8           3.5490    -0.0050     2.7230 cd         1 8Q7       0.584900
      5 C13         -3.3880     0.0310     4.2150 c3         1 8Q7       0.192300
      6 C15         -1.5690     0.4650     5.9050 c3         1 8Q7       0.106000
      7 C20         -2.1150     2.0750    -1.3470 ca         1 8Q7      -0.066000
      8 C21         -2.3360     3.3770    -1.7490 ca         1 8Q7      -0.193500
      9 C22         -1.3960     4.0290    -2.5340 ca         1 8Q7       0.157100
     10 C24         -0.0180     2.0670    -2.5070 ca         1 8Q7      -0.066000
     11 C26         -0.6000     5.9180    -3.7390 c3         1 8Q7       0.127700
     12 C28         -4.6780    -1.7900     6.0060 cx         1 8Q7      -0.247700
     13 C23         -0.2350     3.3700    -2.9130 ca         1 8Q7      -0.193500
     14 C3          -0.0610     0.0050     2.3880 cc         1 8Q7      -0.233500
     15 C12         -0.9570     0.0070     3.5370 cc         1 8Q7      -0.013300
     16 C19         -0.9540     1.4210    -1.7190 ca         1 8Q7      -0.177300
     17 C11         -2.2510     0.0180     3.2080 cd         1 8Q7      -0.092400
     18 C2          -0.7280     0.0050     1.1840 cd         1 8Q7       0.132500
     19 C16         -0.4510    -0.0070     4.9730 c3         1 8Q7      -0.036100
     20 C31         -5.9610    -1.3950     6.7420 cx         1 8Q7      -0.125400
     21 C30         -5.3020    -2.7470     7.0230 cx         1 8Q7       0.360600
     22 C18         -0.7150     0.0010    -1.2780 c3         1 8Q7       0.163300
     23 N7           2.3420    -0.0010     3.2870 nd         1 8Q7      -0.747000
     24 N9           3.4240     0.0000     1.4200 nc         1 8Q7      -0.485800
     25 N5           2.0500     0.0000     1.1390 n          1 8Q7      -0.040500
     26 N14         -2.8120    -0.2330     5.5430 n          1 8Q7      -0.485800
     27 O17          1.9320    -0.0010    -1.0620 o          1 8Q7      -0.610500
     28 O29         -2.9130    -1.2910     7.4910 o          1 8Q7      -0.578100
     29 F32         -4.6460    -2.9030     8.2500 f          1 8Q7      -0.181800
     30 F33         -5.9380    -3.8910     6.5300 f          1 8Q7      -0.181800
     31 S10         -2.4620     0.0150     1.4660 ss         1 8Q7      -0.097800
     32 H1           4.4900    -0.0120     3.2600 h5         1 8Q7       0.088100
     33 H2          -4.1060    -0.7410     3.9670 h1         1 8Q7       0.061200
     34 H3          -3.8690     1.0020     4.2120 h1         1 8Q7       0.061200
     35 H4          -1.7080     1.5330     5.7920 h1         1 8Q7       0.071200
     36 H5          -1.3090     0.2330     6.9300 h1         1 8Q7       0.071200
     37 H6          -2.8480     1.5660    -0.7320 ha         1 8Q7       0.143500
     38 H7          -3.2440     3.8890    -1.4540 ha         1 8Q7       0.144000
     39 H8           0.8890     1.5530    -2.8000 ha         1 8Q7       0.143500
     40 H9          -0.4750     5.3470    -4.6510 h1         1 8Q7       0.044700
     41 H10          0.3410     5.9550    -3.2040 h1         1 8Q7       0.044700
     42 H11         -0.9170     6.9240    -3.9830 h1         1 8Q7       0.044700
     43 H12         -4.8190    -2.0740     4.9700 hc         1 8Q7       0.106700
     44 H13          0.5000     3.8750    -3.5270 ha         1 8Q7       0.144000
     45 H14          0.3990     0.6590     5.0630 hc         1 8Q7       0.082700
     46 H15         -0.1570    -1.0150     5.2430 hc         1 8Q7       0.082700
     47 H16         -5.8440    -0.6470     7.5180 hc         1 8Q7       0.101700
     48 H17         -6.8680    -1.4310     6.1520 hc         1 8Q7       0.101700
     49 H18         -1.6650    -0.5060    -1.1610 h1         1 8Q7       0.079700
     50 H19         -0.1210    -0.5130    -2.0240 h1         1 8Q7       0.079700
     51 C27         -3.4050    -1.0870     6.4010 c          1 8Q7       0.697100
     52 O25         -1.6120     5.3100    -2.9320 os         1 8Q7      -0.326900
@<TRIPOS>BOND
     1    24     4 2
     2    24    25 1
     3     4    23 1
     4    27     3 2
     5    25     3 1
     6    25     2 1
     7     3     1 1
     8    23     2 2
     9     2    14 1
    10     1    22 1
    11     1    18 1
    12    10    13 ar
    13    10    16 ar
    14    22    16 1
    15    14    18 2
    16    14    15 1
    17    13     9 ar
    18    16     7 ar
    19    18    31 1
    20    11    52 1
    21    15    19 1
    22    15    17 2
    23     9    52 1
    24     9     8 ar
    25     7     8 ar
    26    19     6 1
    27    31    17 1
    28    17     5 1
    29     6    26 1
    30     5    26 1
    31    26    51 1
    32    51    28 2
    33    51    12 1
    34    29    21 1
    35    12    21 1
    36    12    20 1
    37    21    30 1
    38    21    20 1
    39     4    32 1
    40     5    33 1
    41     5    34 1
    42     6    35 1
    43     6    36 1
    44     7    37 1
    45     8    38 1
    46    10    39 1
    47    11    40 1
    48    11    41 1
    49    11    42 1
    50    12    43 1
    51    13    44 1
    52    19    45 1
    53    19    46 1
    54    20    47 1
    55    20    48 1
    56    22    49 1
    57    22    50 1
@<TRIPOS>SUBSTRUCTURE
     1 8Q7         1 TEMP              0 ****  ****    0 ROOT
