@<TRIPOS>MOLECULE
8Q8
   67    70     1     0     0
SMALL
bcc


@<TRIPOS>ATOM
      1 C1           0.0000     0.0000     0.0000 c3         1 8Q8      -0.033100
      2 C8           2.6610    -2.5890    -4.8010 ca         1 8Q8      -0.061300
      3 C7           1.5790    -1.6180    -5.2230 c3         1 8Q8       0.035900
      4 C6           1.7900    -0.3700    -4.3400 c3         1 8Q8      -0.104400
      5 C5           2.4700    -0.9610    -3.0870 c3         1 8Q8       0.189800
      6 C4           2.0390    -1.2490    -0.7220 c3         1 8Q8       0.001500
      7 C3           2.0390     1.2500    -0.7210 c3         1 8Q8      -0.033100
      8 C2           1.5290     0.0000     0.0000 c3         1 8Q8      -0.085800
      9 N1           2.0200     0.0000     1.3850 nz         1 8Q8      -0.051600
     10 C9           3.1790    -2.2080    -3.5740 ca         1 8Q8      -0.188300
     11 C10          4.1890    -2.9520    -2.9840 ca         1 8Q8      -0.102000
     12 N2           1.4650    -1.3030    -2.0730 n7         1 8Q8      -0.589200
     13 C13          3.1530    -3.7110    -5.4400 ca         1 8Q8      -0.059000
     14 C12          4.1690    -4.4640    -4.8490 ca         1 8Q8       0.103000
     15 C11          4.6930    -4.0700    -3.6150 ca         1 8Q8      -0.083000
     16 C27          1.6290    -2.4780     0.0480 c          1 8Q8       0.529100
     17 N5           2.2920    -2.8230     1.1690 ns         1 8Q8      -0.078400
     18 O3           1.9740    -4.0310     1.8360 oh         1 8Q8      -0.415100
     19 C15          5.1160    -6.5830    -6.0360 cg         1 8Q8      -0.048000
     20 C16          5.0470    -7.4120    -7.2030 ca         1 8Q8       0.078000
     21 C26          4.8200    -7.0280    -8.5030 ca         1 8Q8      -0.082000
     22 C25          5.3130    -7.7830    -9.7010 ca         1 8Q8      -0.099000
     23 C19          6.0780    -8.9910    -9.6200 ca         1 8Q8      -0.152300
     24 C18          6.2660    -9.3180    -8.0640 ca         1 8Q8      -0.099000
     25 C17          5.8010    -8.6040    -7.0580 ca         1 8Q8      -0.082000
     26 C20          6.5670   -10.1290   -10.5860 c3         1 8Q8      -0.020400
     27 N3           7.5560    -9.5880   -11.3700 na         1 8Q8       0.488100
     28 C23          8.7780    -9.7440   -11.1740 cc         1 8Q8       0.077800
     29 C24          9.5340   -10.4900   -10.0400 c3         1 8Q8       0.193100
     30 O1           9.9340   -11.7150   -10.6870 oh         1 8Q8      -0.599800
     31 N4           9.3540    -8.8460   -12.4530 nd         1 8Q8      -0.565000
     32 C22          8.6590    -8.4120   -13.0520 cd         1 8Q8       0.518200
     33 C21          7.3750    -8.6570   -12.6810 cc         1 8Q8      -0.774600
     34 H1          -0.2410     0.0970    -1.0520 hc         1 8Q8       0.051867
     35 H2          -0.8820    -0.4730     0.4140 hc         1 8Q8       0.051867
     36 H3           0.0010     1.0470     0.2790 hc         1 8Q8       0.051867
     37 H4           1.9080    -1.0940    -6.1130 hc         1 8Q8       0.059200
     38 H5           0.5880    -1.8630    -4.8590 hc         1 8Q8       0.059200
     39 H6           2.1210     0.5660    -4.7730 hc         1 8Q8       0.051700
     40 H7           0.9270    -0.3440    -3.6860 hc         1 8Q8       0.051700
     41 H8           3.1900    -0.2570    -2.6870 h1         1 8Q8       0.021700
     42 H9           3.1200    -1.2110    -0.7910 h1         1 8Q8       0.049700
     43 H10          1.6570     2.0260    -0.0690 hc         1 8Q8       0.051867
     44 H11          3.0950     1.0870    -0.8980 hc         1 8Q8       0.051867
     45 H12          1.5290     1.4040    -1.6630 hc         1 8Q8       0.051867
     46 H13          1.4910    -0.6500     1.9320 hn         1 8Q8       0.263800
     47 H14          2.8890    -0.4440     1.1640 hn         1 8Q8       0.263800
     48 H16          4.7250    -2.4490    -2.1890 ha         1 8Q8       0.088000
     49 H17          1.2540    -2.2410    -1.7950 hn         1 8Q8       0.339800
     50 H19          2.6570    -3.9730    -6.3670 ha         1 8Q8       0.122000
     51 H20          5.2620    -4.6840    -2.9270 ha         1 8Q8       0.118000
     52 H21          3.0640    -2.3410     1.5860 hn         1 8Q8       0.139500
     53 H22          2.2650    -3.9990     2.7320 ho         1 8Q8       0.408000
     54 H23          4.5320    -6.0880    -8.9570 ha         1 8Q8       0.113000
     55 H24          4.8780    -7.4820   -10.6460 ha         1 8Q8       0.101000
     56 H25          7.0730   -10.0350    -7.9710 ha         1 8Q8       0.101000
     57 H26          6.1480    -9.1560    -6.1920 ha         1 8Q8       0.113000
     58 H27          6.7740   -11.0420   -10.0410 h1         1 8Q8       0.068700
     59 H28          5.6400   -10.0710   -11.1430 h1         1 8Q8       0.068700
     60 H29         10.4310    -9.8860   -10.1060 h1         1 8Q8       0.054700
     61 H30          8.7120   -10.8300    -9.4220 h1         1 8Q8       0.054700
     62 H31         10.3130   -12.2820   -10.0350 ho         1 8Q8       0.389000
     63 H32          8.6540    -7.9710   -14.0420 h4         1 8Q8      -0.002900
     64 H33          6.3950    -8.5360   -13.1270 h4         1 8Q8       0.158000
     65 O2           0.7010    -3.1550    -0.3410 o          1 8Q8      -0.510100
     66 C14          4.6820    -5.6270    -5.5100 ch         1 8Q8      -0.129000
     67 H131         1.7930     0.9710     1.4770 hn         1 8Q8       0.263800
@<TRIPOS>BOND
     1     1     8 1   
     2     1    34 1   
     3     1    35 1   
     4     1    36 1   
     5     2     3 1   
     6     2    10 ar  
     7     2    13 ar  
     8     3     4 1   
     9     3    37 1   
    10     3    38 1   
    11     4     5 1   
    12     4    39 1   
    13     4    40 1   
    14     5    10 1   
    15     5    12 1   
    16     5    41 1   
    17     6     8 1   
    18     6    12 1   
    19     6    16 1   
    20     6    42 1   
    21     7     8 1   
    22     7    43 1   
    23     7    44 1   
    24     7    45 1   
    25     8     9 1   
    26     9    46 1   
    27     9    47 1   
    28     9    67 1   
    29    10    11 ar  
    30    11    15 ar  
    31    11    48 1   
    32    12    49 1   
    33    13    14 ar  
    34    13    50 1   
    35    14    15 ar  
    36    14    66 1   
    37    15    51 1   
    38    16    17 1   
    39    16    65 2   
    40    17    18 1   
    41    17    52 1   
    42    18    53 1   
    43    19    20 1   
    44    19    66 3   
    45    20    21 ar  
    46    20    25 ar  
    47    21    22 ar  
    48    21    54 1   
    49    22    23 ar  
    50    22    55 1   
    51    23    24 ar  
    52    23    26 1   
    53    24    25 ar  
    54    24    56 1   
    55    25    57 1   
    56    26    27 1   
    57    26    58 1   
    58    26    59 1   
    59    27    28 1   
    60    27    33 1   
    61    28    29 1   
    62    28    31 2   
    63    29    30 1   
    64    29    60 1   
    65    29    61 1   
    66    30    62 1   
    67    31    32 1   
    68    32    33 2   
    69    32    63 1   
    70    33    64 1   
@<TRIPOS>SUBSTRUCTURE
     1 8Q8         1 TEMP              0 ****  ****    0 ROOT
