@<TRIPOS>MOLECULE
molecule
   42    45     1     0     0
SMALL
bcc


@<TRIPOS>ATOM
      1 C1           0.0000     0.0000     0.0000 ca         1 8QB       0.493200
      2 C2           0.0090    -0.0040     2.3060 ca         1 8QB       0.952900
      3 C3           2.0490     0.0000     1.2300 ca         1 8QB       0.592800
      4 C7           4.5090    -0.5540     1.9430 cc         1 8QB      -0.094300
      5 C8           7.0270    -0.8230     2.1290 c3         1 8QB       0.024300
      6 C9           7.9960    -1.5120     1.1690 c3         1 8QB       0.096000
      7 C10          6.9150    -0.3990    -0.7400 c          1 8QB       0.750100
      8 C11         -2.1720     0.0030     3.4620 c3         1 8QB       0.253500
      9 C12         -2.6760     1.4450     3.3410 c3         1 8QB      -0.134400
     10 C13         -4.2050     1.4480     3.3910 c3         1 8QB       0.140400
     11 C14         -4.2420    -0.5240     4.7540 c3         1 8QB       0.140400
     12 C15         -2.7130    -0.6080     4.7580 c3         1 8QB      -0.134400
     13 O            6.9480    -0.1770    -1.9360 o          1 8QB      -0.619500
     14 C6           5.6890    -0.3990     0.0730 cd         1 8QB      -0.197900
     15 C5           4.3970    -0.2290    -0.2820 cc         1 8QB      -0.078000
     16 N3           8.0330    -0.8790    -0.1420 ns         1 8QB      -0.601900
     17 N2           5.7500    -0.6010     1.4460 na         1 8QB      -0.043100
     18 C4           3.6310    -0.3270     0.9020 cc         1 8QB      -0.243500
     19 C            1.3820     0.0000     0.0000 ca         1 8QB      -0.442600
     20 N1           1.3320    -0.0110     2.3520 nb         1 8QB      -0.802000
     21 N           -0.6480     0.0010     1.1550 nb         1 8QB      -0.810000
     22 N4          -0.7070    -0.0040     3.4910 nu         1 8QB      -0.896900
     23 O1          -4.6430     0.8390     4.6070 os         1 8QB      -0.423600
     24 H1          -0.5470     0.0020    -0.9350 h4         1 8QB       0.025100
     25 H2           4.2390    -0.6730     2.9850 h4         1 8QB       0.184000
     26 H3           6.8690    -1.4530     2.9960 h1         1 8QB       0.068200
     27 H4           7.4410     0.1290     2.4380 h1         1 8QB       0.068200
     28 H5           7.6500    -2.5300     1.0310 h1         1 8QB       0.059200
     29 H6           8.9890    -1.4360     1.5960 h1         1 8QB       0.059200
     30 H7          -2.5250    -0.5750     2.6160 h1         1 8QB       0.079700
     31 H8          -2.2870     2.0330     4.1630 hc         1 8QB       0.058200
     32 H9          -2.3440     1.8650     2.3990 hc         1 8QB       0.058200
     33 H10         -4.5650     2.4690     3.3500 h1         1 8QB       0.049200
     34 H11         -4.5940     0.8890     2.5480 h1         1 8QB       0.049200
     35 H12         -4.6320    -1.1050     3.9260 h1         1 8QB       0.049200
     36 H13         -4.6260    -0.9140     5.6880 h1         1 8QB       0.049200
     37 H14         -2.3240    -0.0570     5.6060 hc         1 8QB       0.058200
     38 H15         -2.4080    -1.6450     4.8220 hc         1 8QB       0.058200
     39 H16          4.0420     0.1210    -1.2440 ha         1 8QB       0.170000
     40 H17          8.9100    -0.7970    -0.6170 hn         1 8QB       0.331500
     41 H18          1.9360    -0.0010    -0.9310 ha         1 8QB       0.149000
     42 H19         -0.2240    -0.0290     4.3670 hn         1 8QB       0.454800
@<TRIPOS>BOND
     1    13     7 2
     2     7    14 1
     3     7    16 1
     4    19     1 ar
     5    19     3 ar
     6    15    14 2
     7    15    18 1
     8     1    21 ar
     9    14    17 1
    10    16     6 1
    11     3    18 1
    12     3    20 ar
    13    18     4 2
    14    21     2 ar
    15    17     4 1
    16    17     5 1
    17    20     2 ar
    18     2    22 1
    19     5     6 1
    20    22     8 1
    21     8    12 1
    22     8     9 1
    23    12    11 1
    24    11    23 1
    25     9    10 1
    26    10    23 1
    27     1    24 1
    28     4    25 1
    29     5    26 1
    30     5    27 1
    31     6    28 1
    32     6    29 1
    33     8    30 1
    34     9    31 1
    35     9    32 1
    36    10    33 1
    37    10    34 1
    38    11    35 1
    39    11    36 1
    40    12    37 1
    41    12    38 1
    42    15    39 1
    43    16    40 1
    44    19    41 1
    45    22    42 1
@<TRIPOS>SUBSTRUCTURE
     1 8QB         1 TEMP              0 ****  ****    0 ROOT
