@<TRIPOS>MOLECULE
8QB
   42    45     1     0     0
SMALL
bcc


@<TRIPOS>ATOM
      1 C1           0.0000     0.0000     0.0000 ca         1 8QB       0.488200
      2 C2           0.0090    -0.0040     2.3060 ca         1 8QB       0.726900
      3 C3           2.0490     0.0000     1.2300 ca         1 8QB       0.568800
      4 C7           4.5090    -0.5540     1.9430 cc         1 8QB      -0.275300
      5 C8           7.0270    -0.8230     2.1290 c3         1 8QB      -0.065700
      6 C9           7.9960    -1.5120     1.1690 c3         1 8QB       0.049000
      7 C10          6.9150    -0.3990    -0.7400 c          1 8QB       0.688100
      8 C11         -2.1720     0.0030     3.4620 c3         1 8QB       0.139500
      9 C12         -2.6760     1.4450     3.3410 c3         1 8QB      -0.083400
     10 C13         -4.2050     1.4480     3.3910 c3         1 8QB       0.220900
     11 C14         -4.2420    -0.5240     4.7540 c3         1 8QB       0.220900
     12 C15         -2.7130    -0.6080     4.7580 c3         1 8QB      -0.083400
     13 O            6.9480    -0.1770    -1.9360 o          1 8QB      -0.658500
     14 C6           5.6890    -0.3990     0.0730 cc         1 8QB      -0.390900
     15 C5           4.3970    -0.2290    -0.2820 cd         1 8QB      -0.038000
     16 N3           8.0330    -0.8790    -0.1420 ns         1 8QB      -0.231900
     17 N2           5.7500    -0.6010     1.4460 na         1 8QB       0.452900
     18 C4           3.6310    -0.3270     0.9020 cd         1 8QB      -0.243500
     19 C            1.3820     0.0000     0.0000 ca         1 8QB      -0.434600
     20 N1           1.3320    -0.0110     2.3520 nb         1 8QB      -0.681000
     21 N           -0.6480     0.0010     1.1550 nb         1 8QB      -0.712000
     22 N4          -0.7070    -0.0040     3.4910 nu         1 8QB      -0.485900
     23 O1          -4.6430     0.8390     4.6070 os         1 8QB      -0.410600
     24 H1          -0.5470     0.0020    -0.9350 h4         1 8QB      -0.021900
     25 H2           4.2390    -0.6730     2.9850 h4         1 8QB       0.157000
     26 H3           6.8690    -1.4530     2.9960 h1         1 8QB       0.038700
     27 H4           7.4410     0.1290     2.4380 h1         1 8QB       0.038700
     28 H5           7.6500    -2.5300     1.0310 h1         1 8QB       0.026700
     29 H6           8.9890    -1.4360     1.5960 h1         1 8QB       0.026700
     30 H7          -2.5250    -0.5750     2.6160 h1         1 8QB       0.057700
     31 H8          -2.2870     2.0330     4.1630 hc         1 8QB       0.029450
     32 H9          -2.3440     1.8650     2.3990 hc         1 8QB       0.029450
     33 H10         -4.5650     2.4690     3.3500 h1         1 8QB       0.008950
     34 H11         -4.5940     0.8890     2.5480 h1         1 8QB       0.008950
     35 H12         -4.6320    -1.1050     3.9260 h1         1 8QB       0.008950
     36 H13         -4.6260    -0.9140     5.6880 h1         1 8QB       0.008950
     37 H14         -2.3240    -0.0570     5.6060 hc         1 8QB       0.029450
     38 H15         -2.4080    -1.6450     4.8220 hc         1 8QB       0.029450
     39 H16          4.0420     0.1210    -1.2440 ha         1 8QB       0.139000
     40 H17          8.9100    -0.7970    -0.6170 hn         1 8QB       0.191500
     41 H18          1.9360    -0.0010    -0.9310 ha         1 8QB       0.136000
     42 H19         -0.2240    -0.0290     4.3670 hn         1 8QB       0.299800
@<TRIPOS>BOND
     1     1    19 ar  
     2     1    21 ar  
     3     1    24 1   
     4     2    20 ar  
     5     2    21 ar  
     6     2    22 1   
     7     3    18 1   
     8     3    19 ar  
     9     3    20 ar  
    10     4    17 1   
    11     4    18 2   
    12     4    25 1   
    13     5     6 1   
    14     5    17 1   
    15     5    26 1   
    16     5    27 1   
    17     6    16 1   
    18     6    28 1   
    19     6    29 1   
    20     7    13 2   
    21     7    14 1   
    22     7    16 1   
    23     8     9 1   
    24     8    12 1   
    25     8    22 1   
    26     8    30 1   
    27     9    10 1   
    28     9    31 1   
    29     9    32 1   
    30    10    23 1   
    31    10    33 1   
    32    10    34 1   
    33    11    12 1   
    34    11    23 1   
    35    11    35 1   
    36    11    36 1   
    37    12    37 1   
    38    12    38 1   
    39    14    15 2   
    40    14    17 1   
    41    15    18 1   
    42    15    39 1   
    43    16    40 1   
    44    19    41 1   
    45    22    42 1   
@<TRIPOS>SUBSTRUCTURE
     1 8QB         1 TEMP              0 ****  ****    0 ROOT
