@<TRIPOS>MOLECULE
molecule
   59    63     1     0     0
SMALL
bcc


@<TRIPOS>ATOM
      1 C10          0.0000     0.0000     0.0000 ca         1 8QD      -0.085000
      2 C15          3.0340    -1.0980    -1.7620 c3         1 8QD      -0.032800
      3 C17          2.6830    -2.5300    -1.4400 c3         1 8QD      -0.060400
      4 C20          5.1640    -3.9680    -4.0540 c3         1 8QD      -0.052000
      5 C21          6.4450    -3.4500    -3.3970 c3         1 8QD      -0.093100
      6 C22          4.9800    -5.4490    -3.7190 c3         1 8QD      -0.065400
      7 C24          6.2810    -6.0710    -5.7580 c3         1 8QD       0.147100
      8 C26          6.4640    -4.5900    -6.0940 c3         1 8QD      -0.085400
      9 C01          5.2650    -3.7970    -5.5710 c3         1 8QD      -0.051700
     10 C02          5.4470    -2.3150    -5.9090 c3         1 8QD      -0.079400
     11 C03          4.2580    -1.5160    -5.3760 c3         1 8QD      -0.073400
     12 C04          4.1700    -1.6840    -3.8580 c3         1 8QD      -0.066700
     13 C05          2.9690    -0.9390    -3.3100 c3         1 8QD      -0.065700
     14 C06          3.0260     0.5940    -3.3720 c3         1 8QD      -0.051200
     15 C07          2.1520     0.9870    -2.1810 c2         1 8QD      -0.166200
     16 C08          2.1510    -0.0000    -1.2730 ce         1 8QD      -0.067400
     17 C09          1.3990     0.0000     0.0000 ca         1 8QD      -0.157100
     18 C11         -0.6570    -0.0000     1.2180 ca         1 8QD      -0.255300
     19 C12          0.0850    -0.0050     2.3860 ca         1 8QD       0.416200
     20 N13          1.4030    -0.0100     2.3550 nb         1 8QD      -0.690000
     21 C14          2.0730     0.0000     1.2210 ca         1 8QD       0.431200
     22 C18          3.7980    -3.4100    -2.0340 c3         1 8QD      -0.081400
     23 C19          3.9660    -3.1730    -3.5290 c3         1 8QD      -0.052700
     24 C23          6.1800    -6.2420    -4.2410 c3         1 8QD      -0.091400
     25 O25          5.0860    -6.5560    -6.3720 oh         1 8QD      -0.604800
     26 H101        -0.5550     0.0040    -0.9300 ha         1 8QD       0.140000
     27 H171         1.7320    -2.7870    -1.8910 hc         1 8QD       0.046700
     28 H172         2.6380    -2.6670    -0.3660 hc         1 8QD       0.046700
     29 H211         6.5280    -2.3820    -3.5590 hc         1 8QD       0.036367
     30 H213         7.3020    -3.9490    -3.8350 hc         1 8QD       0.036367
     31 H212         6.4140    -3.6530    -2.3340 hc         1 8QD       0.036367
     32 H222         4.9090    -5.5690    -2.6440 hc         1 8QD       0.050700
     33 H221         4.0750    -5.8140    -4.1890 hc         1 8QD       0.050700
     34 H241         7.1330    -6.6300    -6.1260 h1         1 8QD       0.025700
     35 H262         7.3690    -4.2240    -5.6260 hc         1 8QD       0.046700
     36 H261         6.5330    -4.4710    -7.1680 hc         1 8QD       0.046700
     37 H011         4.3580    -4.1640    -6.0370 hc         1 8QD       0.070700
     38 H022         6.3590    -1.9520    -5.4500 hc         1 8QD       0.040700
     39 H021         5.5070    -2.1970    -6.9840 hc         1 8QD       0.040700
     40 H031         4.3920    -0.4680    -5.6150 hc         1 8QD       0.041700
     41 H032         3.3450    -1.8820    -5.8310 hc         1 8QD       0.041700
     42 H041         5.0780    -1.3210    -3.3910 hc         1 8QD       0.069700
     43 H051         2.0380    -1.3230    -3.7090 hc         1 8QD       0.065700
     44 H061         4.0420     0.9470    -3.2380 hc         1 8QD       0.053200
     45 H062         2.6010     0.9580    -4.2990 hc         1 8QD       0.053200
     46 H071         1.2600     1.5810    -2.3370 ha         1 8QD       0.141000
     47 H111        -1.7390     0.0020     1.2570 ha         1 8QD       0.138000
     48 H121        -0.4260    -0.0100     3.3410 h4         1 8QD       0.021100
     49 H141         3.1560    -0.0020     1.2370 h4         1 8QD       0.029100
     50 H181         3.5500    -4.4520    -1.8690 hc         1 8QD       0.046200
     51 H182         4.7310    -3.1800    -1.5340 hc         1 8QD       0.046200
     52 H191         3.0740    -3.5180    -4.0360 hc         1 8QD       0.053700
     53 H231         7.0860    -5.8730    -3.7760 hc         1 8QD       0.045700
     54 H232         6.0480    -7.2910    -4.0050 hc         1 8QD       0.045700
     55 H251         5.2950    -7.2820    -6.9370 ho         1 8QD       0.398000
     56 C16          4.4710    -0.8210    -1.3140 c3         1 8QD      -0.098100
     57 H161         5.1530    -1.4320    -1.8930 hc         1 8QD       0.042367
     58 H163         4.7020     0.2260    -1.4700 hc         1 8QD       0.042367
     59 H162         4.5740    -1.0610    -0.2630 hc         1 8QD       0.042367
@<TRIPOS>BOND
     1    10    11 1
     2    10     9 1
     3    11    12 1
     4     8     9 1
     5     8     7 1
     6     5     4 1
     7     9     4 1
     8    14    13 1
     9    14    15 1
    10    12    13 1
    11    12    23 1
    12     4    23 1
    13     4     6 1
    14     7    24 1
    15     7    25 1
    16    56     2 1
    17    13     2 1
    18    15    16 2
    19    23    22 1
    20    24     6 1
    21     2    16 1
    22     2     3 1
    23    22     3 1
    24    16    17 1
    25    17     1 ar
    26    17    21 ar
    27     1    18 ar
    28    21    20 ar
    29    18    19 ar
    30    20    19 ar
    31     1    26 1
    32     3    27 1
    33     3    28 1
    34     5    29 1
    35     5    30 1
    36     5    31 1
    37     6    32 1
    38     6    33 1
    39     7    34 1
    40     8    35 1
    41     8    36 1
    42     9    37 1
    43    10    38 1
    44    10    39 1
    45    11    40 1
    46    11    41 1
    47    12    42 1
    48    13    43 1
    49    14    44 1
    50    14    45 1
    51    15    46 1
    52    18    47 1
    53    19    48 1
    54    21    49 1
    55    56    57 1
    56    56    58 1
    57    56    59 1
    58    22    50 1
    59    22    51 1
    60    23    52 1
    61    24    53 1
    62    24    54 1
    63    25    55 1
@<TRIPOS>SUBSTRUCTURE
     1 8QD         1 TEMP              0 ****  ****    0 ROOT
