@<TRIPOS>MOLECULE
molecule
   45    46     1     0     0
SMALL
bcc


@<TRIPOS>ATOM
      1 C1           0.0000     0.0000     0.0000 ca         1 8QE      -0.261600
      2 C2           2.0840     0.0000     1.1930 ca         1 8QE      -0.167000
      3 C4           1.3870    -0.0010     2.3980 ca         1 8QE       0.269600
      4 C6          -0.0050     0.0110     2.4020 ca         1 8QE      -0.167000
      5 C8           1.6670    -0.8170     4.6450 ca         1 8QE       0.731200
      6 C11          0.8680    -2.4120     6.7230 ca         1 8QE      -0.260300
      7 C13          1.8820    -1.4510     6.8640 ca         1 8QE       0.785200
      8 C15          0.4780    -3.2270     7.8340 cg         1 8QE       0.248800
      9 N24          0.1520    -3.8790     8.7060 n1         1 8QE      -0.360800
     10 C9           0.2440    -2.5640     5.4670 ca         1 8QE       0.315600
     11 N14         -0.7620    -3.5000     5.2810 nv         1 8QE      -0.988200
     12 C10          0.6610    -1.7480     4.4220 ca         1 8QE      -0.396300
     13 N16          2.5070    -1.2840     8.0870 nu         1 8QE      -0.883900
     14 C17          3.5660    -0.2830     8.2390 c3         1 8QE       0.243200
     15 C20          3.0050     1.1040     7.9200 c3         1 8QE      -0.099100
     16 C19          4.0850    -0.3040     9.6790 c3         1 8QE      -0.099100
     17 C18          4.7120    -0.6030     7.2790 c3         1 8QE      -0.099100
     18 N12          2.2410    -0.6970     5.8350 nb         1 8QE      -0.811000
     19 N7           2.0840    -0.0010     3.6040 nu         1 8QE      -0.762300
     20 C3           1.3970     0.0000     0.0000 ca         1 8QE      -0.043000
     21 C5          -0.6970     0.0050     1.2120 ca         1 8QE      -0.043000
     22 C21         -0.7390     0.0000    -1.2780 c          1 8QE       0.506700
     23 O22         -0.1310     0.0010    -2.3310 o          1 8QE      -0.431100
     24 N23         -2.0860     0.0010    -1.2770 nz         1 8QE      -0.676400
     25 H1           3.1670    -0.0150     1.1930 ha         1 8QE       0.173500
     26 H2          -0.6050     0.5560     3.1200 ha         1 8QE       0.173500
     27 H3          -1.7200    -3.2370     5.4080 hn         1 8QE       0.444300
     28 H4          -0.5320    -4.4340     5.0040 hn         1 8QE       0.444300
     29 H5           0.2080    -1.8330     3.4420 ha         1 8QE       0.144000
     30 H6           2.3150    -1.9190     8.8370 hn         1 8QE       0.462800
     31 H7           2.0140     1.2000     8.3460 hc         1 8QE       0.046922
     32 H8           2.9510     1.2340     6.8460 hc         1 8QE       0.046922
     33 H9           3.6540     1.8620     8.3430 hc         1 8QE       0.046922
     34 H10          4.4860    -1.2850     9.9040 hc         1 8QE       0.046922
     35 H11          4.8640     0.4390     9.7930 hc         1 8QE       0.046922
     36 H12          3.2720    -0.0820    10.3590 hc         1 8QE       0.046922
     37 H13          5.6560    -0.3490     7.7460 hc         1 8QE       0.046922
     38 H14          4.5920    -0.0280     6.3690 hc         1 8QE       0.046922
     39 H15          4.7000    -1.6610     7.0430 hc         1 8QE       0.046922
     40 H16          2.8780     0.5960     3.7230 hn         1 8QE       0.477800
     41 H17          1.9390     0.0050    -0.9380 ha         1 8QE       0.141000
     42 H18         -1.7800     0.0100     1.2130 ha         1 8QE       0.141000
     43 H19         -2.4200     0.0170    -2.2200 hn         1 8QE       0.475800
     44 H20         -2.4200    -0.8240    -0.8190 hn         1 8QE       0.475800
     45 H233        -2.4190     0.8100    -0.7910 hn         1 8QE       0.475800
@<TRIPOS>BOND
     1     9     8 3
     2     8     6 1
     3    16    14 1
     4    13    14 1
     5    13     7 1
     6     6     7 ar
     7     6    10 ar
     8    11    10 1
     9    17    14 1
    10    14    15 1
    11     7    18 ar
    12    10    12 ar
    13    18     5 ar
    14    12     5 ar
    15     5    19 1
    16    19     3 1
    17     4     3 ar
    18     4    21 ar
    19     3     2 ar
    20    21     1 ar
    21     2    20 ar
    22     1    20 ar
    23     1    22 1
    24    24    22 1
    25    22    23 2
    26     2    25 1
    27     4    26 1
    28    11    27 1
    29    11    28 1
    30    12    29 1
    31    13    30 1
    32    15    31 1
    33    15    32 1
    34    15    33 1
    35    16    34 1
    36    16    35 1
    37    16    36 1
    38    17    37 1
    39    17    38 1
    40    17    39 1
    41    19    40 1
    42    20    41 1
    43    21    42 1
    44    24    43 1
    45    24    44 1
    46    45    24 1
@<TRIPOS>SUBSTRUCTURE
     1 8QE         1 TEMP              0 ****  ****    0 ROOT
