@<TRIPOS>MOLECULE
molecule
   16    17     1     0     0
SMALL
bcc


@<TRIPOS>ATOM
      1 C11          0.0000     0.0000     0.0000 cc         1 8QG       0.358200
      2 C02          4.1040    -0.0020    -2.9240 cd         1 8QG       0.061300
      3 C03          2.8620    -0.0030    -3.4190 cc         1 8QG      -0.136000
      4 C04          1.8560    -0.0020    -2.4720 cc         1 8QG      -0.163000
      5 C05          2.2840    -0.0010    -1.1960 cd         1 8QG       0.074900
      6 C07          1.4100     0.0000     0.0000 cc         1 8QG      -0.239300
      7 C08          1.8210     0.0000     1.3020 cd         1 8QG      -0.099300
      8 N09          0.7180     0.0010     2.0790 na         1 8QG      -0.037600
      9 N10         -0.4060     0.0010     1.2420 nd         1 8QG      -0.505800
     10 S06          4.0430    -0.0080    -1.1660 ss         1 8QG      -0.128800
     11 H1          -0.6360    -0.0000    -0.8770 h4         1 8QG       0.054100
     12 H2           2.6600    -0.0020    -4.4830 ha         1 8QG       0.158000
     13 H3           0.8050    -0.0020    -2.7360 ha         1 8QG       0.152000
     14 H4           2.8480    -0.0000     1.6490 h4         1 8QG       0.177000
     15 H5           0.7040     0.0020     3.0790 hn         1 8QG       0.333700
     16 Cl           5.5580    -0.0040    -3.8730 cl         1 8QG      -0.058400
@<TRIPOS>BOND
     1     4     3 1
     2     4     5 2
     3     3     2 2
     4     1     9 2
     5     1     6 1
     6     9     8 1
     7     5     6 1
     8     5    10 1
     9     6     7 2
    10     2    16 1
    11     2    10 1
    12     8     7 1
    13     1    11 1
    14     3    12 1
    15     4    13 1
    16     7    14 1
    17     8    15 1
@<TRIPOS>SUBSTRUCTURE
     1 8QG         1 TEMP              0 ****  ****    0 ROOT
