@<TRIPOS>MOLECULE
molecule
   51    54     1     0     0
SMALL
bcc


@<TRIPOS>ATOM
      1 C4           1.5290     0.0000     0.0000 c3         1 8QL      -0.089100
      2 C5          -0.4540     0.0000     1.4300 c2         1 8QL      -0.120400
      3 C6          -0.1320    -1.2220     2.2720 c3         1 8QL       0.188300
      4 C7          -0.6260    -2.4630     1.5240 c3         1 8QL      -0.093400
      5 C8          -0.0030    -2.5010     0.1250 c3         1 8QL      -0.057700
      6 C10          0.1750    -1.3630    -2.0610 c3         1 8QL      -0.082400
      7 C13          1.6000    -4.1420    -2.1450 c3         1 8QL      -0.074100
      8 C15         -1.8820    -4.0330    -0.6120 c3         1 8QL      -0.079400
      9 C17         -0.7640    -5.0490    -2.5700 c3         1 8QL      -0.076400
     10 O1          -0.7950    -1.1250     3.5350 oh         1 8QL      -0.604800
     11 C18         -1.0980     0.9830     1.9880 c2         1 8QL      -0.162200
     12 C           -1.4770     2.2370     1.2540 c3         1 8QL       0.182300
     13 O           -1.4200     3.3500     2.1480 oh         1 8QL      -0.601800
     14 C14         -0.3650    -3.8000    -0.5590 c3         1 8QL      -0.055700
     15 C16         -2.1400    -4.8400    -1.9010 c3         1 8QL      -0.084400
     16 C12          0.0990    -3.8720    -2.0240 c3         1 8QL      -0.061000
     17 C11         -0.3260    -2.6120    -2.7820 c3         1 8QL      -0.068400
     18 C9          -0.4860    -1.3030    -0.6910 c3         1 8QL      -0.050700
     19 C3           0.0000     0.0000     0.0000 c3         1 8QL      -0.015800
     20 C2          -0.4760     1.2100    -0.7840 c3         1 8QL      -0.065400
     21 C1          -0.4950     2.4550     0.1000 c3         1 8QL      -0.086400
     22 H1           1.8900     0.7410     0.7030 hc         1 8QL       0.038367
     23 H2           1.8910    -0.9790     0.2900 hc         1 8QL       0.038367
     24 H3           1.8910     0.2390    -0.9930 hc         1 8QL       0.038367
     25 H4           0.9390    -1.2890     2.4210 h1         1 8QL       0.039700
     26 H5          -1.7050    -2.4230     1.4360 hc         1 8QL       0.051700
     27 H6          -0.3350    -3.3510     2.0710 hc         1 8QL       0.051700
     28 H7           1.0750    -2.4460     0.2210 hc         1 8QL       0.053700
     29 H8          -0.0920    -0.4830    -2.6330 hc         1 8QL       0.045700
     30 H9           1.2510    -1.4170    -1.9450 hc         1 8QL       0.045700
     31 H10          1.8580    -4.2820    -3.1880 hc         1 8QL       0.035033
     32 H11          2.1520    -3.3000    -1.7460 hc         1 8QL       0.035033
     33 H12          1.8520    -5.0360    -1.5880 hc         1 8QL       0.035033
     34 H13         -2.4030    -3.0850    -0.6570 hc         1 8QL       0.045200
     35 H14         -2.2020    -4.6020     0.2530 hc         1 8QL       0.045200
     36 H15         -0.3380    -6.0000    -2.2730 hc         1 8QL       0.044200
     37 H16         -0.8530    -4.9840    -3.6480 hc         1 8QL       0.044200
     38 H17         -0.2260    -1.4490     4.2140 ho         1 8QL       0.402000
     39 H18         -1.3750     0.8920     3.0320 ha         1 8QL       0.154000
     40 H19         -2.4810     2.1340     0.8590 h1         1 8QL       0.037700
     41 H20         -2.2890     3.6850     2.2890 ho         1 8QL       0.399000
     42 H21          0.0910    -4.6160    -0.0110 hc         1 8QL       0.048700
     43 H22         -2.7930    -4.2820    -2.5620 hc         1 8QL       0.041200
     44 H23         -2.5820    -5.7980    -1.6560 hc         1 8QL       0.041200
     45 H24          0.0930    -2.6390    -3.7800 hc         1 8QL       0.043200
     46 H25         -1.4070    -2.5800    -2.8420 hc         1 8QL       0.043200
     47 H26         -1.5650    -1.3100    -0.7830 hc         1 8QL       0.063700
     48 H27          0.1930     1.3780    -1.6200 hc         1 8QL       0.045700
     49 H28         -1.4770     1.0230    -1.1540 hc         1 8QL       0.045700
     50 H29          0.4970     2.6300     0.4980 hc         1 8QL       0.053200
     51 H30         -0.8110     3.3090    -0.4870 hc         1 8QL       0.053200
@<TRIPOS>BOND
     1     7    16 1   
     2    17    16 1   
     3    17     6 1   
     4     9    16 1   
     5     9    15 1   
     6    16    14 1   
     7     6    18 1   
     8    15     8 1   
     9    20    21 1   
    10    20    19 1   
    11    18    19 1   
    12    18     5 1   
    13    14     8 1   
    14    14     5 1   
    15    21    12 1   
    16    19     1 1   
    17    19     2 1   
    18     5     4 1   
    19    12    13 1   
    20    12    11 1   
    21     2    11 2   
    22     2     3 1   
    23     4     3 1   
    24     3    10 1   
    25     1    22 1   
    26     1    23 1   
    27     1    24 1   
    28     3    25 1   
    29     4    26 1   
    30     4    27 1   
    31     5    28 1   
    32     6    29 1   
    33     6    30 1   
    34     7    31 1   
    35     7    32 1   
    36     7    33 1   
    37     8    34 1   
    38     8    35 1   
    39     9    36 1   
    40     9    37 1   
    41    10    38 1   
    42    11    39 1   
    43    12    40 1   
    44    13    41 1   
    45    14    42 1   
    46    15    43 1   
    47    15    44 1   
    48    17    45 1   
    49    17    46 1   
    50    18    47 1   
    51    20    48 1   
    52    20    49 1   
    53    21    50 1   
    54    21    51 1   
@<TRIPOS>SUBSTRUCTURE
     1 8QL         1 TEMP              0 ****  ****    0 ROOT
