@<TRIPOS>MOLECULE
molecule
   21    22     1     0     0
SMALL
bcc


@<TRIPOS>ATOM
      1 C10          0.0000     0.0000     0.0000 cx         1 8QM      -0.061400
      2 O01         -3.4930     4.8740    -2.5900 o          1 8QM      -0.838800
      3 O03         -2.4670     5.8870    -0.9020 o          1 8QM      -0.838800
      4 C04         -1.9760     3.6170    -1.1390 ca         1 8QM      -0.102600
      5 C05         -2.1880     2.4430    -1.8640 ca         1 8QM      -0.100000
      6 C06         -1.5480     1.2800    -1.4920 ca         1 8QM      -0.156000
      7 C07         -0.6960     1.2740    -0.4010 ca         1 8QM      -0.083300
      8 C08         -0.4810     2.4340     0.3220 ca         1 8QM      -0.156000
      9 C09         -1.1100     3.6060    -0.0430 ca         1 8QM      -0.100000
     10 C11          1.5300     0.0000     0.0000 cx         1 8QM      -0.149900
     11 C12          0.7650     0.0000     1.3250 cx         1 8QM      -0.149900
     12 H1          -0.4530    -0.9480    -0.2610 hc         1 8QM       0.069700
     13 H3          -2.8550     2.4460    -2.7190 ha         1 8QM       0.149000
     14 H4          -1.7120     0.3680    -2.0540 ha         1 8QM       0.106000
     15 H5           0.1910     2.4250     1.1720 ha         1 8QM       0.106000
     16 H6          -0.9410     4.5130     0.5240 ha         1 8QM       0.149000
     17 H7           1.9980    -0.9390    -0.2700 hc         1 8QM       0.068700
     18 H8           1.9980     0.9390    -0.2700 hc         1 8QM       0.068700
     19 H9           0.7650    -0.9390     1.8650 hc         1 8QM       0.068700
     20 H10          0.7650     0.9390     1.8650 hc         1 8QM       0.068700
     21 C02         -2.6590     4.8660    -1.5330 c          1 8QM       0.882200
@<TRIPOS>BOND
     1     3    21 1
     2     5     6 ar
     3     5     4 ar
     4    21     2 1
     5    21     4 1
     6     6     7 ar
     7     4     9 ar
     8    11    10 1
     9    11     1 1
    10     7     1 1
    11     7     8 ar
    12     9     8 ar
    13    10     1 1
    14     1    12 1
    15     5    13 1
    16     6    14 1
    17     8    15 1
    18     9    16 1
    19    10    17 1
    20    10    18 1
    21    11    19 1
    22    11    20 1
@<TRIPOS>SUBSTRUCTURE
     1 8QM         1 TEMP              0 ****  ****    0 ROOT
