@<TRIPOS>MOLECULE
molecule
   51    53     1     0     0
SMALL
bcc


@<TRIPOS>ATOM
      1 O2P          0.0000     0.0000     0.0000 o          1 8QN      -0.763500
      2 P10          1.6100     0.0000     0.0000 p5         1 8QN       1.296800
      3 O1P          2.1030     0.0000     1.3960 o          1 8QN      -0.763500
      4 O3P          2.1470     1.3150    -0.7580 os         1 8QN      -0.503500
      5 C            1.8740     2.5000    -0.1910 c          1 8QN       0.682100
      6 CA           2.3440     3.7750    -0.8440 c3         1 8QN       0.039500
      7 N            1.5520     4.9040    -0.3400 nz         1 8QN      -0.796600
      8 CB           3.8210     4.0010    -0.5150 c3         1 8QN       0.129100
      9 OG1          4.0010     3.9870     0.9020 oh         1 8QN      -0.604800
     10 CG2          4.2660     5.3540    -1.0720 c3         1 8QN      -0.147100
     11 O            1.2510     2.5460     0.8430 o          1 8QN      -0.466000
     12 O5'          2.1470    -1.3140    -0.7590 os         1 8QN      -0.596200
     13 C5'          1.9280    -2.6390    -0.2700 c3         1 8QN       0.235400
     14 C4'          2.5680    -3.6470    -1.2270 c3         1 8QN       0.122100
     15 C3'          2.2370    -5.0910    -0.7860 c3         1 8QN       0.092100
     16 O3'          1.1440    -5.6090    -1.5450 oh         1 8QN      -0.571800
     17 C2'          3.5300    -5.8810    -1.0880 c3         1 8QN       0.087100
     18 O2'          3.2750    -6.9110    -2.0450 oh         1 8QN      -0.563800
     19 C1'          4.4890    -4.8210    -1.6770 c3         1 8QN       0.248800
     20 O4'          4.0070    -3.5620    -1.1590 os         1 8QN      -0.402600
     21 N9           5.8610    -5.0700    -1.2270 na         1 8QN      -0.254000
     22 C4           6.7620    -5.9260    -1.8060 ca         1 8QN       0.441800
     23 C5           7.9340    -5.8330    -1.0370 ca         1 8QN      -0.158200
     24 N7           7.6920    -4.9410    -0.0480 nc         1 8QN      -0.591100
     25 C8           6.4770    -4.4870    -0.1600 cd         1 8QN       0.450700
     26 N3           6.7390    -6.7470    -2.8520 nb         1 8QN      -0.742000
     27 C2           7.7980    -7.4620    -3.1660 ca         1 8QN       0.695900
     28 N1           8.9210    -7.4080    -2.4730 nb         1 8QN      -0.774000
     29 C6           9.0380    -6.6170    -1.4130 ca         1 8QN       0.770200
     30 N6          10.2190    -6.5660    -0.6930 nv         1 8QN      -1.073500
     31 H2           2.2210     3.6970    -1.9170 hx         1 8QN       0.128700
     32 H3           1.7740     5.0640     0.6230 hn         1 8QN       0.461467
     33 H4           1.7660     5.7250    -0.8720 hn         1 8QN       0.461467
     34 H6           4.4150     3.2130    -0.9620 h1         1 8QN       0.102700
     35 H7           4.8670     3.6760     1.1060 ho         1 8QN       0.448000
     36 H8           4.0360     6.1330    -0.3550 hc         1 8QN       0.055033
     37 H9           3.7440     5.5520    -2.0000 hc         1 8QN       0.055033
     38 H10          5.3340     5.3360    -1.2550 hc         1 8QN       0.055033
     39 H11          0.8630    -2.8280    -0.2040 h1         1 8QN       0.049700
     40 H12          2.3740    -2.7400     0.7130 h1         1 8QN       0.049700
     41 H13          2.2300    -3.4790    -2.2420 h1         1 8QN       0.086700
     42 H14          2.0170    -5.1200     0.2740 h1         1 8QN       0.052700
     43 H15          0.4870    -5.9480    -0.9600 ho         1 8QN       0.404000
     44 H16          3.9400    -6.2950    -0.1750 h1         1 8QN       0.053700
     45 H17          3.2520    -7.7470    -1.6080 ho         1 8QN       0.406000
     46 H18          4.4340    -4.8270    -2.7590 h2         1 8QN       0.107700
     47 H19          6.0240    -3.7540     0.4960 h5         1 8QN       0.096800
     48 H20          7.7460    -8.1150    -4.0290 h5         1 8QN       0.061100
     49 H21         10.9270    -5.9030    -0.9390 hn         1 8QN       0.442300
     50 H22         10.3620    -7.1870     0.0790 hn         1 8QN       0.442300
     51 HN3          0.5780     4.6960    -0.4340 hn         1 8QN       0.461467
@<TRIPOS>BOND
     1     7     6 1   
     2    10     8 1   
     3     6     8 1   
     4     6     5 1   
     5     8     9 1   
     6     4     5 1   
     7     4     2 1   
     8     5    11 2   
     9     3     2 1   
    10     1     2 1   
    11     2    12 1   
    12    12    13 1   
    13    13    14 1   
    14    24    25 2   
    15    24    23 1   
    16    25    21 1   
    17    20    14 1   
    18    20    19 1   
    19    14    15 1   
    20    30    29 1   
    21    23    29 ar  
    22    23    22 ar  
    23    21    19 1   
    24    21    22 1   
    25    15    16 1   
    26    15    17 1   
    27    19    17 1   
    28    29    28 ar  
    29    22    26 ar  
    30    17    18 1   
    31    28    27 ar  
    32    26    27 ar  
    33     6    31 1   
    34     7    32 1   
    35     7    33 1   
    36     8    34 1   
    37     9    35 1   
    38    10    36 1   
    39    10    37 1   
    40    10    38 1   
    41    13    39 1   
    42    13    40 1   
    43    14    41 1   
    44    15    42 1   
    45    16    43 1   
    46    17    44 1   
    47    18    45 1   
    48    19    46 1   
    49    25    47 1   
    50    27    48 1   
    51    30    49 1   
    52    30    50 1   
    53    51     7 1   
@<TRIPOS>SUBSTRUCTURE
     1 8QN         1 TEMP              0 ****  ****    0 ROOT
