@<TRIPOS>MOLECULE
8QO
   29    30     1     0     0
SMALL
bcc


@<TRIPOS>ATOM
      1 C6           0.0000     0.0000     0.0000 ca         1 8QO      -0.018000
      2 C11          1.3770     0.0000     0.0000 ca         1 8QO      -0.251000
      3 C9           1.3920     0.0010     2.4080 ca         1 8QO      -0.245000
      4 C2          -0.6980     0.0060     1.2080 ca         1 8QO      -0.205900
      5 C13          2.0770     0.0000     1.2020 ca         1 8QO       0.199100
      6 C5           0.0080     0.0070     2.4200 ca         1 8QO       0.232100
      7 C1          -2.1740     0.0120     1.2120 ce         1 8QO       0.534800
      8 C7          -4.3080     0.0260     1.9780 c3         1 8QO       0.155800
      9 C8          -4.3470     0.0190     0.4360 c3         1 8QO       0.095500
     10 C12         -5.0380     1.2770    -0.0920 c3         1 8QO      -0.008100
     11 C15          4.0760    -0.0050    -0.0830 c3         1 8QO       0.244700
     12 N3          -2.8760     0.0230     2.3000 n2         1 8QO      -0.630900
     13 N4          -2.9230     0.0120     0.0620 nu         1 8QO      -0.533200
     14 O10         -0.6630     0.0060     3.5990 oh         1 8QO      -0.437100
     15 O14          3.4350    -0.0050     1.1950 os         1 8QO      -0.306900
     16 H1          -0.5420    -0.0000    -0.9380 ha         1 8QO       0.098000
     17 H2           1.9170    -0.0030    -0.9390 ha         1 8QO       0.123000
     18 H3           1.9410     0.0010     3.3420 ha         1 8QO       0.127000
     19 H4          -4.7070    -0.9250     2.3080 h1         1 8QO       0.037200
     20 H5          -4.7010     0.9840     2.2990 h1         1 8QO       0.037200
     21 H6          -4.8390    -0.8750     0.0730 h1         1 8QO       0.025700
     22 H7          -5.0400     1.2600    -1.1750 hc         1 8QO       0.009033
     23 H8          -4.5040     2.1550     0.2530 hc         1 8QO       0.009033
     24 H9          -6.0580     1.3090     0.2710 hc         1 8QO       0.009033
     25 H10          3.7810    -0.8890    -0.6350 h1         1 8QO      -0.001633
     26 H11          5.1510    -0.0070     0.0530 h1         1 8QO      -0.001633
     27 H12          3.7830     0.8800    -0.6340 h1         1 8QO      -0.001633
     28 H13         -2.5630     0.0060    -0.8710 hn         1 8QO       0.310800
     29 H14         -0.2230    -0.5610     4.2110 ho         1 8QO       0.395000
@<TRIPOS>BOND
     1     1     2 ar  
     2     1     4 ar  
     3     1    16 1   
     4     2     5 ar  
     5     2    17 1   
     6     3     5 ar  
     7     3     6 ar  
     8     3    18 1   
     9     4     6 ar  
    10     4     7 1   
    11     5    15 1   
    12     6    14 1   
    13     7    12 2   
    14     7    13 1   
    15     8     9 1   
    16     8    12 1   
    17     8    19 1   
    18     8    20 1   
    19     9    10 1   
    20     9    13 1   
    21     9    21 1   
    22    10    22 1   
    23    10    23 1   
    24    10    24 1   
    25    11    15 1   
    26    11    25 1   
    27    11    26 1   
    28    11    27 1   
    29    13    28 1   
    30    14    29 1   
@<TRIPOS>SUBSTRUCTURE
     1 8QO         1 TEMP              0 ****  ****    0 ROOT
