@<TRIPOS>MOLECULE
molecule
   41    43     1     0     0
SMALL
bcc


@<TRIPOS>ATOM
      1 C2           0.0000     0.0000     0.0000 ca         1 8QP      -0.083300
      2 C3           1.3780     0.0000     0.0000 ca         1 8QP      -0.138000
      3 C4           2.0840     0.0000     1.1940 ca         1 8QP      -0.172000
      4 C5           1.4260     0.0010     2.3910 ca         1 8QP      -0.096000
      5 C6           0.0290     0.0020     2.4160 ca         1 8QP      -0.087800
      6 C7          -0.6920     0.0060     1.2060 ca         1 8QP      -0.047200
      7 C9          -0.9720     0.0040     3.4730 cc         1 8QP      -0.207400
      8 C15         -4.1010     1.3990     3.6350 c3         1 8QP      -0.204400
      9 O1          -4.3140     0.9390     1.3330 o          1 8QP      -0.854300
     10 C16         -4.5510     1.7120     2.2310 c          1 8QP       0.909600
     11 O2          -5.2170     2.8490     1.9770 o          1 8QP      -0.854300
     12 C12         -3.4760     0.0030     3.6700 c3         1 8QP       0.229000
     13 C13         -4.4480    -1.0140     3.0710 c3         1 8QP      -0.078400
     14 C14         -5.7870    -0.9360     3.8100 c3         1 8QP      -0.089100
     15 C8          -2.1850     0.0020     2.8820 cd         1 8QP      -0.015300
     16 N           -2.0330     0.0120     1.5270 na         1 8QP      -0.126400
     17 C1          -0.7550    -0.0000    -1.3040 c3         1 8QP      -0.035100
     18 C           -1.1130     1.4380    -1.6860 c3         1 8QP      -0.091100
     19 O           -3.1700    -0.3560     5.0240 os         1 8QP      -0.426600
     20 C11         -2.1130     0.4040     5.6130 c3         1 8QP       0.136400
     21 C10         -0.7770     0.0090     4.9680 c3         1 8QP      -0.025200
     22 H1           1.9150    -0.0010    -0.9410 ha         1 8QP       0.113000
     23 H2           3.1670    -0.0000     1.1780 ha         1 8QP       0.107000
     24 H3           1.9850     0.0010     3.3190 ha         1 8QP       0.113000
     25 H4          -4.9540     1.4290     4.3020 hc         1 8QP       0.051200
     26 H5          -3.3690     2.1310     3.9510 hc         1 8QP       0.051200
     27 H7          -4.0360    -2.0110     3.1740 hc         1 8QP       0.068200
     28 H8          -4.6010    -0.7940     2.0220 hc         1 8QP       0.068200
     29 H9          -5.6080    -0.7670     4.8640 hc         1 8QP       0.030033
     30 H10         -6.3250    -1.8670     3.6800 hc         1 8QP       0.030033
     31 H11         -6.3740    -0.1200     3.4070 hc         1 8QP       0.030033
     32 H12         -2.7830     0.0200     0.8640 hn         1 8QP       0.350700
     33 H13         -0.1370    -0.4370    -2.0800 hc         1 8QP       0.038200
     34 H14         -1.6630    -0.5810    -1.1960 hc         1 8QP       0.038200
     35 H15         -0.8580     2.1020    -0.8700 hc         1 8QP       0.038033
     36 H16         -0.5590     1.7240    -2.5720 hc         1 8QP       0.038033
     37 H17         -2.1750     1.5040    -1.8880 hc         1 8QP       0.038033
     38 H18         -2.0730     0.2000     6.6760 h1         1 8QP       0.039700
     39 H19         -2.2940     1.4590     5.4490 h1         1 8QP       0.039700
     40 H20         -0.0140     0.7310     5.2350 hc         1 8QP       0.036700
     41 H21         -0.4870    -0.9800     5.3020 hc         1 8QP       0.036700
@<TRIPOS>BOND
     1     3     2 ar  
     2     3     4 ar  
     3     2     1 ar  
     4    18    17 1   
     5     4     5 ar  
     6     1    17 1   
     7     1     6 ar  
     8     5     6 ar  
     9     5     7 1   
    10     6    16 1   
    11     7    21 1   
    12     7    15 2   
    13    16    15 1   
    14    21    20 1   
    15    15    12 1   
    16    20    19 1   
    17     9    10 1   
    18    12    19 1   
    19    12     8 1   
    20    12    13 1   
    21     8    10 1   
    22    10    11 1   
    23    13    14 1   
    24     2    22 1   
    25     3    23 1   
    26     4    24 1   
    27     8    25 1   
    28     8    26 1   
    29    13    27 1   
    30    13    28 1   
    31    14    29 1   
    32    14    30 1   
    33    14    31 1   
    34    16    32 1   
    35    17    33 1   
    36    17    34 1   
    37    18    35 1   
    38    18    36 1   
    39    18    37 1   
    40    20    38 1   
    41    20    39 1   
    42    21    40 1   
    43    21    41 1   
@<TRIPOS>SUBSTRUCTURE
     1 8QP         1 TEMP              0 ****  ****    0 ROOT
