@<TRIPOS>MOLECULE
molecule
   73    77     1     0     0
SMALL
bcc


@<TRIPOS>ATOM
      1 N            0.0000     0.0000     0.0000 nc         1 8QQ      -0.641100
      2 C            0.0290     0.0010     2.4330 cd         1 8QQ       0.207800
      3 O            2.1810    -0.0010     3.3660 o          1 8QQ      -0.584500
      4 C17         10.1120     4.9650     3.3230 c3         1 8QQ       0.616900
      5 F           10.4350     5.3520     2.0180 f          1 8QQ      -0.225633
      6 F1          10.5040     3.6370     3.5270 f          1 8QQ      -0.225633
      7 C15          8.6010     5.0890     3.5310 c3         1 8QQ      -0.051400
      8 C16          8.2010     6.5400     3.4590 ca         1 8QQ      -0.097300
      9 C28          8.4350     7.2650     2.3050 ca         1 8QQ      -0.104500
     10 C27          8.0690     8.5970     2.2390 ca         1 8QQ      -0.130500
     11 C26          7.4680     9.2030     3.3260 ca         1 8QQ      -0.105000
     12 C25          7.2340     8.4780     4.4800 ca         1 8QQ      -0.130500
     13 C24          7.5960     7.1460     4.5440 ca         1 8QQ      -0.104500
     14 C14          7.8700     4.3040     2.4410 c3         1 8QQ      -0.155400
     15 O1           5.9590     4.9030     3.6910 o          1 8QQ      -0.597100
     16 N4           5.5480     3.6240     1.9240 n          1 8QQ      -0.493800
     17 C10          6.0560     2.8850     0.7610 c3         1 8QQ       0.110500
     18 C9           5.5530     1.4400     0.8390 c3         1 8QQ      -0.105400
     19 C11          4.1040     3.6110     2.1940 c3         1 8QQ       0.110500
     20 C12          3.6270     2.1560     2.2510 c3         1 8QQ      -0.105400
     21 C8           4.0280     1.4410     0.9650 c3         1 8QQ       0.130800
     22 O2           3.4580     2.1140    -0.1590 oh         1 8QQ      -0.599800
     23 C7           3.5190    -0.0010     1.0070 c3         1 8QQ       0.067000
     24 N1           2.0590     0.0000     1.1280 n          1 8QQ      -0.379300
     25 C2           1.2980     0.0000     0.0000 cd         1 8QQ       0.535800
     26 C3           1.4980     0.0000     2.3600 c          1 8QQ       0.639000
     27 N2          -0.8740     0.0010     3.3820 nc         1 8QQ      -0.413800
     28 N3          -2.0620     0.0020     2.8920 na         1 8QQ       0.159400
     29 C5          -3.2870     0.0030     3.6960 c3         1 8QQ       0.051600
     30 C4          -2.0390     0.0020     1.5280 cc         1 8QQ      -0.131300
     31 C1          -0.7050     0.0010     1.1570 cd         1 8QQ       0.042100
     32 C6          -3.2080     0.0020     0.6240 ca         1 8QQ       0.069000
     33 C22         -4.2860    -0.8520     0.8710 ca         1 8QQ      -0.105000
     34 C21         -5.3730    -0.8470     0.0230 ca         1 8QQ      -0.097500
     35 C20         -5.3990     0.0010    -1.0700 ca         1 8QQ      -0.208300
     36 C23         -6.5910     0.0000    -1.9920 c3         1 8QQ       0.161100
     37 N5          -7.5770     0.9800    -1.5180 nz         1 8QQ      -0.811600
     38 C19         -4.3340     0.8490    -1.3210 ca         1 8QQ      -0.097500
     39 C18         -3.2420     0.8590    -0.4770 ca         1 8QQ      -0.105000
     40 H1           8.3360     4.6900     4.5030 hc         1 8QQ       0.104700
     41 H2           8.9060     6.7900     1.4530 ha         1 8QQ       0.137000
     42 H3           8.3290     8.9950     1.2660 ha         1 8QQ       0.133500
     43 H4           7.1830    10.2470     3.2750 ha         1 8QQ       0.131000
     44 H5           6.7620     8.9530     5.3310 ha         1 8QQ       0.133500
     45 H6           7.4120     6.5780     5.4480 ha         1 8QQ       0.137000
     46 H7           8.2370     3.2850     2.4230 hc         1 8QQ       0.074700
     47 H8           8.0480     4.7700     1.4790 hc         1 8QQ       0.074700
     48 H9           5.6920     3.3470    -0.1490 h1         1 8QQ       0.064950
     49 H10          7.1390     2.8930     0.7710 h1         1 8QQ       0.064950
     50 H11          5.8400     0.9090    -0.0620 hc         1 8QQ       0.065700
     51 H12          5.9860     0.9530     1.7050 hc         1 8QQ       0.065700
     52 H13          3.5820     4.1320     1.4000 h1         1 8QQ       0.064950
     53 H14          3.9080     4.0940     3.1430 h1         1 8QQ       0.064950
     54 H15          4.0870     1.6600     3.0980 hc         1 8QQ       0.065700
     55 H16          2.5490     2.1340     2.3550 hc         1 8QQ       0.065700
     56 H17          3.8290     1.7690    -0.9540 ho         1 8QQ       0.400000
     57 H18          3.8050    -0.5120     0.0960 h1         1 8QQ       0.078200
     58 H19          3.9510    -0.5120     1.8590 h1         1 8QQ       0.078200
     59 H20          1.8060    -0.0010    -0.9570 h5         1 8QQ       0.061800
     60 H21         -3.9920     0.7120     3.2780 h1         1 8QQ       0.066700
     61 H22         -3.0500     0.2870     4.7140 h1         1 8QQ       0.066700
     62 H23         -3.7240    -0.9880     3.6900 h1         1 8QQ       0.066700
     63 H24         -4.2670    -1.5170     1.7260 ha         1 8QQ       0.167000
     64 H25         -6.2100    -1.5090     0.2130 ha         1 8QQ       0.136000
     65 H26         -7.0390    -0.9860    -2.0030 hx         1 8QQ       0.111700
     66 H27         -6.2730     0.2640    -2.9930 hx         1 8QQ       0.111700
     67 H28         -7.2330     1.9050    -1.6820 hn         1 8QQ       0.453467
     68 H29         -7.7310     0.8500    -0.5370 hn         1 8QQ       0.453467
     69 H31         -4.3620     1.5120    -2.1770 ha         1 8QQ       0.136000
     70 H32         -2.4100     1.5240    -0.6740 ha         1 8QQ       0.167000
     71 H53         -8.4440     0.8400    -1.9980 hn         1 8QQ       0.453467
     72 C13          6.3910     4.3000     2.7310 c          1 8QQ       0.670100
     73 F2          10.7780     5.7930     4.2340 f          1 8QQ      -0.225633
@<TRIPOS>BOND
     1     6     4 1   
     2    73     4 1   
     3     5     4 1   
     4     4     7 1   
     5     7    14 1   
     6     7     8 1   
     7    14    72 1   
     8     8    13 ar  
     9     8     9 ar  
    10    13    12 ar  
    11     9    10 ar  
    12    12    11 ar  
    13    72    15 2   
    14    72    16 1   
    15    10    11 ar  
    16    16    19 1   
    17    16    17 1   
    18    19    20 1   
    19    20    21 1   
    20     3    26 2   
    21    17    18 1   
    22    29    28 1   
    23    27    28 1   
    24    27     2 2   
    25    18    21 1   
    26    28    30 1   
    27    26     2 1   
    28    26    24 1   
    29    21    22 1   
    30    21    23 1   
    31     2    31 1   
    32    23    24 1   
    33    24    25 1   
    34    30    31 2   
    35    30    32 1   
    36    31     1 1   
    37    32    33 ar  
    38    32    39 ar  
    39    25     1 2   
    40    33    34 ar  
    41    39    38 ar  
    42    34    35 ar  
    43    38    35 ar  
    44    35    36 1   
    45    36    37 1   
    46     7    40 1   
    47     9    41 1   
    48    10    42 1   
    49    11    43 1   
    50    12    44 1   
    51    13    45 1   
    52    14    46 1   
    53    14    47 1   
    54    17    48 1   
    55    17    49 1   
    56    18    50 1   
    57    18    51 1   
    58    19    52 1   
    59    19    53 1   
    60    20    54 1   
    61    20    55 1   
    62    22    56 1   
    63    23    57 1   
    64    23    58 1   
    65    25    59 1   
    66    29    60 1   
    67    29    61 1   
    68    29    62 1   
    69    33    63 1   
    70    34    64 1   
    71    36    65 1   
    72    36    66 1   
    73    37    67 1   
    74    37    68 1   
    75    38    69 1   
    76    39    70 1   
    77    71    37 1   
@<TRIPOS>SUBSTRUCTURE
     1 8QQ         1 TEMP              0 ****  ****    0 ROOT
