@<TRIPOS>MOLECULE
8QQ
   73    77     1     0     0
SMALL
bcc


@<TRIPOS>ATOM
      1 N            0.0000     0.0000     0.0000 nc         1 8QQ      -0.531100
      2 C            0.0290     0.0010     2.4330 cc         1 8QQ       0.192800
      3 O            2.1810    -0.0010     3.3660 o          1 8QQ      -0.628500
      4 C17         10.1120     4.9650     3.3230 c3         1 8QQ       0.572900
      5 F           10.4350     5.3520     2.0180 f          1 8QQ      -0.207967
      6 F1          10.5040     3.6370     3.5270 f          1 8QQ      -0.207967
      7 C15          8.6010     5.0890     3.5310 c3         1 8QQ      -0.027400
      8 C16          8.2010     6.5400     3.4590 ca         1 8QQ      -0.102300
      9 C28          8.4350     7.2650     2.3050 ca         1 8QQ      -0.084500
     10 C27          8.0690     8.5970     2.2390 ca         1 8QQ      -0.101500
     11 C26          7.4680     9.2030     3.3260 ca         1 8QQ      -0.075000
     12 C25          7.2340     8.4780     4.4800 ca         1 8QQ      -0.101500
     13 C24          7.5960     7.1460     4.5440 ca         1 8QQ      -0.084500
     14 C14          7.8700     4.3040     2.4410 c3         1 8QQ      -0.106400
     15 O1           5.9590     4.9030     3.6910 o          1 8QQ      -0.635100
     16 N4           5.5480     3.6240     1.9240 n          1 8QQ      -0.156800
     17 C10          6.0560     2.8850     0.7610 c3         1 8QQ       0.053500
     18 C9           5.5530     1.4400     0.8390 c3         1 8QQ      -0.062400
     19 C11          4.1040     3.6110     2.1940 c3         1 8QQ       0.053500
     20 C12          3.6270     2.1560     2.2510 c3         1 8QQ      -0.062400
     21 C8           4.0280     1.4410     0.9650 c3         1 8QQ       0.147800
     22 O2           3.4580     2.1140    -0.1590 oh         1 8QQ      -0.585800
     23 C7           3.5190    -0.0010     1.0070 c3         1 8QQ      -0.007000
     24 N1           2.0590     0.0000     1.1280 n          1 8QQ       0.028700
     25 C2           1.2980     0.0000     0.0000 cd         1 8QQ       0.367800
     26 C3           1.4980     0.0000     2.3600 c          1 8QQ       0.552000
     27 N2          -0.8740     0.0010     3.3820 nd         1 8QQ      -0.516800
     28 N3          -2.0620     0.0020     2.8920 na         1 8QQ       0.621400
     29 C5          -3.2870     0.0030     3.6960 c3         1 8QQ      -0.013400
     30 C4          -2.0390     0.0020     1.5280 cd         1 8QQ      -0.317300
     31 C1          -0.7050     0.0010     1.1570 cc         1 8QQ       0.008100
     32 C6          -3.2080     0.0020     0.6240 ca         1 8QQ       0.096000
     33 C22         -4.2860    -0.8520     0.8710 ca         1 8QQ      -0.084500
     34 C21         -5.3730    -0.8470     0.0230 ca         1 8QQ      -0.059500
     35 C20         -5.3990     0.0010    -1.0700 ca         1 8QQ      -0.231300
     36 C23         -6.5910     0.0000    -1.9920 c3         1 8QQ       0.041100
     37 N5          -7.5770     0.9800    -1.5180 nz         1 8QQ       0.071400
     38 C19         -4.3340     0.8490    -1.3210 ca         1 8QQ      -0.059500
     39 C18         -3.2420     0.8590    -0.4770 ca         1 8QQ      -0.084500
     40 H1           8.3360     4.6900     4.5030 hc         1 8QQ       0.079700
     41 H2           8.9060     6.7900     1.4530 ha         1 8QQ       0.114000
     42 H3           8.3290     8.9950     1.2660 ha         1 8QQ       0.106500
     43 H4           7.1830    10.2470     3.2750 ha         1 8QQ       0.102000
     44 H5           6.7620     8.9530     5.3310 ha         1 8QQ       0.106500
     45 H6           7.4120     6.5780     5.4480 ha         1 8QQ       0.114000
     46 H7           8.2370     3.2850     2.4230 hc         1 8QQ       0.046700
     47 H8           8.0480     4.7700     1.4790 hc         1 8QQ       0.046700
     48 H9           5.6920     3.3470    -0.1490 h1         1 8QQ       0.037700
     49 H10          7.1390     2.8930     0.7710 h1         1 8QQ       0.037700
     50 H11          5.8400     0.9090    -0.0620 hc         1 8QQ       0.038950
     51 H12          5.9860     0.9530     1.7050 hc         1 8QQ       0.038950
     52 H13          3.5820     4.1320     1.4000 h1         1 8QQ       0.037700
     53 H14          3.9080     4.0940     3.1430 h1         1 8QQ       0.037700
     54 H15          4.0870     1.6600     3.0980 hc         1 8QQ       0.038950
     55 H16          2.5490     2.1340     2.3550 hc         1 8QQ       0.038950
     56 H17          3.8290     1.7690    -0.9540 ho         1 8QQ       0.395000
     57 H18          3.8050    -0.5120     0.0960 h1         1 8QQ       0.051700
     58 H19          3.9510    -0.5120     1.8590 h1         1 8QQ       0.051700
     59 H20          1.8060    -0.0010    -0.9570 h5         1 8QQ       0.008800
     60 H21         -3.9920     0.7120     3.2780 h1         1 8QQ       0.033700
     61 H22         -3.0500     0.2870     4.7140 h1         1 8QQ       0.033700
     62 H23         -3.7240    -0.9880     3.6900 h1         1 8QQ       0.033700
     63 H24         -4.2670    -1.5170     1.7260 ha         1 8QQ       0.135500
     64 H25         -6.2100    -1.5090     0.2130 ha         1 8QQ       0.107500
     65 H26         -7.0390    -0.9860    -2.0030 hx         1 8QQ       0.081200
     66 H27         -6.2730     0.2640    -2.9930 hx         1 8QQ       0.081200
     67 H28         -7.2330     1.9050    -1.6820 hn         1 8QQ       0.222467
     68 H29         -7.7310     0.8500    -0.5370 hn         1 8QQ       0.222467
     69 H31         -4.3620     1.5120    -2.1770 ha         1 8QQ       0.107500
     70 H32         -2.4100     1.5240    -0.6740 ha         1 8QQ       0.135500
     71 H53         -8.4440     0.8400    -1.9980 hn         1 8QQ       0.222467
     72 C13          6.3910     4.3000     2.7310 c          1 8QQ       0.595100
     73 F2          10.7780     5.7930     4.2340 f          1 8QQ      -0.207967
@<TRIPOS>BOND
     1     1    25 2   
     2     1    31 1   
     3     2    26 1   
     4     2    27 2   
     5     2    31 1   
     6     3    26 2   
     7     4     5 1   
     8     4     6 1   
     9     4     7 1   
    10     4    73 1   
    11     7     8 1   
    12     7    14 1   
    13     7    40 1   
    14     8     9 ar  
    15     8    13 ar  
    16     9    10 ar  
    17     9    41 1   
    18    10    11 ar  
    19    10    42 1   
    20    11    12 ar  
    21    11    43 1   
    22    12    13 ar  
    23    12    44 1   
    24    13    45 1   
    25    14    46 1   
    26    14    47 1   
    27    14    72 1   
    28    15    72 2   
    29    16    17 1   
    30    16    19 1   
    31    16    72 1   
    32    17    18 1   
    33    17    48 1   
    34    17    49 1   
    35    18    21 1   
    36    18    50 1   
    37    18    51 1   
    38    19    20 1   
    39    19    52 1   
    40    19    53 1   
    41    20    21 1   
    42    20    54 1   
    43    20    55 1   
    44    21    22 1   
    45    21    23 1   
    46    22    56 1   
    47    23    24 1   
    48    23    57 1   
    49    23    58 1   
    50    24    25 1   
    51    24    26 1   
    52    25    59 1   
    53    27    28 1   
    54    28    29 1   
    55    28    30 1   
    56    29    60 1   
    57    29    61 1   
    58    29    62 1   
    59    30    31 2   
    60    30    32 1   
    61    32    33 ar  
    62    32    39 ar  
    63    33    34 ar  
    64    33    63 1   
    65    34    35 ar  
    66    34    64 1   
    67    35    36 1   
    68    35    38 ar  
    69    36    37 1   
    70    36    65 1   
    71    36    66 1   
    72    37    67 1   
    73    37    68 1   
    74    37    71 1   
    75    38    39 ar  
    76    38    69 1   
    77    39    70 1   
@<TRIPOS>SUBSTRUCTURE
     1 8QQ         1 TEMP              0 ****  ****    0 ROOT
