@<TRIPOS>MOLECULE
molecule
   41    43     1     0     0
SMALL
bcc


@<TRIPOS>ATOM
      1 C10          0.0000     0.0000     0.0000 c3         1 8QS      -0.021200
      2 C11          1.5360     0.0000     0.0000 c3         1 8QS       0.133400
      3 O1           1.4660    -0.4620     5.3680 o          1 8QS      -0.837300
      4 C16          1.2840    -0.0620     4.1000 c          1 8QS       0.888600
      5 O2           0.4430    -0.5920     3.4140 o          1 8QS      -0.837300
      6 C15          2.1320     1.0470     3.5310 c3         1 8QS      -0.178400
      7 C12          1.8010     1.2330     2.0490 c3         1 8QS       0.234000
      8 C13          2.6940     2.3230     1.4530 c3         1 8QS      -0.111400
      9 C14          4.1610     1.9060     1.5780 c3         1 8QS      -0.088100
     10 C8           0.3490     1.6200     1.8950 cc         1 8QS      -0.012300
     11 N           -0.3470     2.5450     2.6210 na         1 8QS      -0.151400
     12 C7          -1.6380     2.6050     2.1750 ca         1 8QS      -0.032200
     13 C2          -2.7280     3.3740     2.5750 ca         1 8QS      -0.085300
     14 C1          -2.6180     4.3720     3.6990 c3         1 8QS      -0.029100
     15 C           -2.0870     5.6990     3.1520 c3         1 8QS      -0.092100
     16 O            2.0120     0.0000     1.3490 os         1 8QS      -0.364600
     17 C9          -0.4620     1.0600     0.9680 cd         1 8QS      -0.147400
     18 C6          -1.7640     1.6690     1.1150 ca         1 8QS      -0.061800
     19 C5          -2.9790     1.4920     0.4450 ca         1 8QS      -0.088000
     20 C4          -4.0360     2.2630     0.8620 ca         1 8QS      -0.196000
     21 C3          -3.9190     3.1770     1.8960 ca         1 8QS      -0.135000
     22 H1          -0.3650    -0.9690     0.3170 hc         1 8QS       0.047200
     23 H2          -0.3650     0.2290    -0.9940 hc         1 8QS       0.047200
     24 H3           1.8960     0.8860    -0.5090 h1         1 8QS       0.028700
     25 H4           1.8960    -0.8860    -0.5090 h1         1 8QS       0.028700
     26 H6           1.9280     1.9670     4.0640 hc         1 8QS       0.040200
     27 H7           3.1790     0.7920     3.6380 hc         1 8QS       0.040200
     28 H8           2.5350     3.2510     1.9890 hc         1 8QS       0.034200
     29 H9           2.4450     2.4620     0.4080 hc         1 8QS       0.034200
     30 H10          4.5510     2.2410     2.5320 hc         1 8QS       0.033700
     31 H11          4.2370     0.8280     1.5160 hc         1 8QS       0.033700
     32 H12          4.7330     2.3560     0.7760 hc         1 8QS       0.033700
     33 H13          0.0310     3.0960     3.3660 hn         1 8QS       0.295700
     34 H14         -3.5950     4.5280     4.1400 hc         1 8QS       0.044700
     35 H15         -1.9380     3.9940     4.4520 hc         1 8QS       0.044700
     36 H16         -1.1010     5.8880     3.5580 hc         1 8QS       0.030033
     37 H17         -2.0300     5.6470     2.0720 hc         1 8QS       0.030033
     38 H18         -2.7560     6.5010     3.4400 hc         1 8QS       0.030033
     39 H19         -3.2620     0.8330    -0.3660 ha         1 8QS       0.122000
     40 H20         -4.9860     2.1340     0.3570 ha         1 8QS       0.104000
     41 H21         -4.9040     3.5910     2.0740 ha         1 8QS       0.113000
@<TRIPOS>BOND
     1    21    20 ar
     2    21    13 ar
     3    15    14 1
     4    20    19 ar
     5    14    13 1
     6    13    12 ar
     7    19    18 ar
     8    12    18 ar
     9    12    11 1
    10    18    17 1
    11    11    10 1
    12    17    10 2
    13    17     1 1
    14    10     7 1
    15     1     2 1
    16     2    16 1
    17     7     6 1
    18     7     8 1
    19     7    16 1
    20     6     4 1
    21     9     8 1
    22     4     5 1
    23     4     3 1
    24     1    22 1
    25     1    23 1
    26     2    24 1
    27     2    25 1
    28     6    26 1
    29     6    27 1
    30     8    28 1
    31     8    29 1
    32     9    30 1
    33     9    31 1
    34     9    32 1
    35    11    33 1
    36    14    34 1
    37    14    35 1
    38    15    36 1
    39    15    37 1
    40    15    38 1
    41    19    39 1
    42    20    40 1
    43    21    41 1
@<TRIPOS>SUBSTRUCTURE
     1 8QS         1 TEMP              0 ****  ****    0 ROOT
