@<TRIPOS>MOLECULE
molecule
   54    56     1     0     0
SMALL
bcc


@<TRIPOS>ATOM
      1 C4           0.0000     0.0000     0.0000 ca         1 8QT       1.004900
      2 C14         -1.9150    -0.0090     4.0650 c3         1 8QT       0.053000
      3 C5           2.0140     0.0000     1.1370 ca         1 8QT       0.815200
      4 C11          6.2930    -1.1910     0.2410 ca         1 8QT       0.436200
      5 C7           5.6040    -0.0000     0.1180 ca         1 8QT      -0.244600
      6 C8           6.2950     1.1960     0.2400 ca         1 8QT      -0.076000
      7 C9           7.6590     1.1480     0.4840 ca         1 8QT      -0.258300
      8 C10          8.2810    -0.0820     0.5950 ca         1 8QT       0.426200
      9 C12          1.3050    -0.0000     2.3500 ca         1 8QT      -0.256200
     10 C13          0.5870     0.0010     4.3970 cc         1 8QT       0.399700
     11 N1          -0.6680     0.0070    -1.2140 nu         1 8QT      -0.896900
     12 N2           1.3270     0.0000     0.0000 nb         1 8QT      -0.880000
     13 C3           0.0890     0.0060    -2.4680 c3         1 8QT       0.256500
     14 N3           3.3970     0.0000     1.1270 nu         1 8QT      -0.892900
     15 C2           0.4540    -1.4310    -2.8430 c3         1 8QT      -0.097400
     16 N4           7.5910    -1.2000     0.4780 nb         1 8QT      -0.690000
     17 N5           1.6580    -0.0000     3.6600 nd         1 8QT      -0.577100
     18 N6          -0.5240    -0.0030     3.6060 na         1 8QT      -0.251000
     19 C15         -2.1680    -1.2590     4.9100 c3         1 8QT      -0.108100
     20 C16         -2.1790     1.2390     4.9090 c3         1 8QT      -0.108100
     21 C17         -0.0990    -0.0050     2.3020 ca         1 8QT       0.514800
     22 N7          -0.7060     0.0010     1.1190 nb         1 8QT      -0.866000
     23 C18         -0.7640     0.6230    -3.5780 c3         1 8QT       0.131100
     24 C19         -1.1290     2.0610    -3.2030 c3         1 8QT      -0.119100
     25 O1          -0.0250     0.6230    -4.8010 oh         1 8QT      -0.601800
     26 H1          -2.5780    -0.0120     3.2080 h1         1 8QT       0.090700
     27 H2           3.8550     0.8830    -0.7140 h1         1 8QT       0.060200
     28 H3           3.8550    -0.8860    -0.7130 h1         1 8QT       0.060200
     29 H5           5.7820     2.1450     0.1490 ha         1 8QT       0.143000
     30 H6           8.2310     2.0620     0.5830 ha         1 8QT       0.140000
     31 H7           9.3460    -0.1280     0.7870 h4         1 8QT       0.024100
     32 H8           0.5780     0.0040     5.4800 h5         1 8QT       0.074800
     33 H9          -1.6690    -0.0180    -1.2330 hn         1 8QT       0.452800
     34 H10          0.9940     0.5880    -2.3430 h1         1 8QT       0.091700
     35 H11          3.9040     0.0170     1.9900 hn         1 8QT       0.468800
     36 H15          0.9350    -1.4390    -3.8130 hc         1 8QT       0.047700
     37 H16         -0.4460    -2.0340    -2.8810 hc         1 8QT       0.047700
     38 H17         -1.8340    -2.1350     4.3670 hc         1 8QT       0.047033
     39 H18         -1.6220    -1.1820     5.8420 hc         1 8QT       0.047033
     40 H19         -3.2270    -1.3460     5.1180 hc         1 8QT       0.047033
     41 H20         -1.6540     1.1540     5.8530 hc         1 8QT       0.047033
     42 H21         -1.8280     2.1150     4.3780 hc         1 8QT       0.047033
     43 H22         -3.2420     1.3310     5.0950 hc         1 8QT       0.047033
     44 H23         -1.6690     0.0410    -3.7030 h1         1 8QT       0.028700
     45 H24         -1.9420     2.0520    -2.4870 hc         1 8QT       0.043700
     46 H25         -1.4360     2.5990    -4.0910 hc         1 8QT       0.043700
     47 H26         -0.2670     2.5490    -2.7640 hc         1 8QT       0.043700
     48 H27         -0.6230     0.6490    -5.5300 ho         1 8QT       0.405000
     49 C1           1.4080    -2.0060    -1.7940 c3         1 8QT      -0.091100
     50 C6           4.1200    -0.0010    -0.1470 c3         1 8QT       0.287100
     51 H4           5.7600    -2.1300     0.1510 h4         1 8QT       0.029100
     52 H12          0.8550    -2.2420    -0.8930 hc         1 8QT       0.038367
     53 H13          2.1750    -1.2760    -1.5660 hc         1 8QT       0.038367
     54 H14          1.8700    -2.9060    -2.1810 hc         1 8QT       0.038367
@<TRIPOS>BOND
     1    49    15 1
     2    16     8 ar
     3    16     4 ar
     4     8     7 ar
     5    15    13 1
     6     4     5 ar
     7     7     6 ar
     8    13    11 1
     9    13    23 1
    10    11     1 1
    11     5     6 ar
    12     5    50 1
    13    25    23 1
    14    24    23 1
    15    12     1 ar
    16    12     3 ar
    17     1    22 ar
    18    50    14 1
    19    22    21 ar
    20     3    14 1
    21     3     9 ar
    22    21     9 ar
    23    21    18 1
    24     9    17 1
    25    20     2 1
    26    18     2 1
    27    18    10 1
    28    17    10 2
    29     2    19 1
    30     2    26 1
    31    50    27 1
    32    50    28 1
    33     4    51 1
    34     6    29 1
    35     7    30 1
    36     8    31 1
    37    10    32 1
    38    11    33 1
    39    13    34 1
    40    14    35 1
    41    49    52 1
    42    49    53 1
    43    49    54 1
    44    15    36 1
    45    15    37 1
    46    19    38 1
    47    19    39 1
    48    19    40 1
    49    20    41 1
    50    20    42 1
    51    20    43 1
    52    23    44 1
    53    24    45 1
    54    24    46 1
    55    24    47 1
    56    25    48 1
@<TRIPOS>SUBSTRUCTURE
     1 8QT         1 TEMP              0 ****  ****    0 ROOT
