@<TRIPOS>MOLECULE
8QT
   54    56     1     0     0
SMALL
bcc


@<TRIPOS>ATOM
      1 C4           0.0000     0.0000     0.0000 ca         1 8QT       0.783900
      2 C14         -1.9150    -0.0090     4.0650 c3         1 8QT      -0.063000
      3 C5           2.0140     0.0000     1.1370 ca         1 8QT       0.637200
      4 C11          6.2930    -1.1910     0.2410 ca         1 8QT       0.422200
      5 C7           5.6040    -0.0000     0.1180 ca         1 8QT      -0.244600
      6 C8           6.2950     1.1960     0.2400 ca         1 8QT      -0.050000
      7 C9           7.6590     1.1480     0.4840 ca         1 8QT      -0.224300
      8 C10          8.2810    -0.0820     0.5950 ca         1 8QT       0.412200
      9 C12          1.3050    -0.0000     2.3500 ca         1 8QT      -0.291200
     10 C13          0.5870     0.0010     4.3970 cc         1 8QT       0.217700
     11 N1          -0.6680     0.0070    -1.2140 nu         1 8QT      -0.485900
     12 N2           1.3270     0.0000     0.0000 nb         1 8QT      -0.789000
     13 C3           0.0890     0.0060    -2.4680 c3         1 8QT       0.127500
     14 N3           3.3970     0.0000     1.1270 nu         1 8QT      -0.475900
     15 C2           0.4540    -1.4310    -2.8430 c3         1 8QT      -0.040400
     16 N4           7.5910    -1.2000     0.4780 nb         1 8QT      -0.583000
     17 N5           1.6580    -0.0000     3.6600 nd         1 8QT      -0.483100
     18 N6          -0.5240    -0.0030     3.6060 na         1 8QT       0.208000
     19 C15         -2.1680    -1.2590     4.9100 c3         1 8QT      -0.011100
     20 C16         -2.1790     1.2390     4.9090 c3         1 8QT      -0.011100
     21 C17         -0.0990    -0.0050     2.3020 ca         1 8QT       0.315800
     22 N7          -0.7060     0.0010     1.1190 nb         1 8QT      -0.758000
     23 C18         -0.7640     0.6230    -3.5780 c3         1 8QT       0.181100
     24 C19         -1.1290     2.0610    -3.2030 c3         1 8QT      -0.034100
     25 O1          -0.0250     0.6230    -4.8010 oh         1 8QT      -0.580800
     26 H1          -2.5780    -0.0120     3.2080 h1         1 8QT       0.062700
     27 H2           3.8550     0.8830    -0.7140 h1         1 8QT       0.033200
     28 H3           3.8550    -0.8860    -0.7130 h1         1 8QT       0.033200
     29 H5           5.7820     2.1450     0.1490 ha         1 8QT       0.114000
     30 H6           8.2310     2.0620     0.5830 ha         1 8QT       0.115000
     31 H7           9.3460    -0.1280     0.7870 h4         1 8QT      -0.019900
     32 H8           0.5780     0.0040     5.4800 h5         1 8QT       0.030800
     33 H9          -1.6690    -0.0180    -1.2330 hn         1 8QT       0.296800
     34 H10          0.9940     0.5880    -2.3430 h1         1 8QT       0.067700
     35 H11          3.9040     0.0170     1.9900 hn         1 8QT       0.313800
     36 H15          0.9350    -1.4390    -3.8130 hc         1 8QT       0.020200
     37 H16         -0.4460    -2.0340    -2.8810 hc         1 8QT       0.020200
     38 H17         -1.8340    -2.1350     4.3670 hc         1 8QT       0.014367
     39 H18         -1.6220    -1.1820     5.8420 hc         1 8QT       0.014367
     40 H19         -3.2270    -1.3460     5.1180 hc         1 8QT       0.014367
     41 H20         -1.6540     1.1540     5.8530 hc         1 8QT       0.014367
     42 H21         -1.8280     2.1150     4.3780 hc         1 8QT       0.014367
     43 H22         -3.2420     1.3310     5.0950 hc         1 8QT       0.014367
     44 H23         -1.6690     0.0410    -3.7030 h1         1 8QT      -0.001300
     45 H24         -1.9420     2.0520    -2.4870 hc         1 8QT       0.012700
     46 H25         -1.4360     2.5990    -4.0910 hc         1 8QT       0.012700
     47 H26         -0.2670     2.5490    -2.7640 hc         1 8QT       0.012700
     48 H27         -0.6230     0.6490    -5.5300 ho         1 8QT       0.391000
     49 C1           1.4080    -2.0060    -1.7940 c3         1 8QT      -0.026100
     50 C6           4.1200    -0.0010    -0.1470 c3         1 8QT       0.219100
     51 H4           5.7600    -2.1300     0.1510 h4         1 8QT      -0.014900
     52 H12          0.8550    -2.2420    -0.8930 hc         1 8QT       0.013367
     53 H13          2.1750    -1.2760    -1.5660 hc         1 8QT       0.013367
     54 H14          1.8700    -2.9060    -2.1810 hc         1 8QT       0.013367
@<TRIPOS>BOND
     1     1    11 1   
     2     1    12 ar  
     3     1    22 ar  
     4     2    18 1   
     5     2    19 1   
     6     2    20 1   
     7     2    26 1   
     8     3     9 ar  
     9     3    12 ar  
    10     3    14 1   
    11     4     5 ar  
    12     4    16 ar  
    13     4    51 1   
    14     5     6 ar  
    15     5    50 1   
    16     6     7 ar  
    17     6    29 1   
    18     7     8 ar  
    19     7    30 1   
    20     8    16 ar  
    21     8    31 1   
    22     9    17 1   
    23     9    21 ar  
    24    10    17 2   
    25    10    18 1   
    26    10    32 1   
    27    11    13 1   
    28    11    33 1   
    29    13    15 1   
    30    13    23 1   
    31    13    34 1   
    32    14    35 1   
    33    14    50 1   
    34    15    36 1   
    35    15    37 1   
    36    15    49 1   
    37    18    21 1   
    38    19    38 1   
    39    19    39 1   
    40    19    40 1   
    41    20    41 1   
    42    20    42 1   
    43    20    43 1   
    44    21    22 ar  
    45    23    24 1   
    46    23    25 1   
    47    23    44 1   
    48    24    45 1   
    49    24    46 1   
    50    24    47 1   
    51    25    48 1   
    52    27    50 1   
    53    28    50 1   
    54    49    52 1   
    55    49    53 1   
    56    49    54 1   
@<TRIPOS>SUBSTRUCTURE
     1 8QT         1 TEMP              0 ****  ****    0 ROOT
