@<TRIPOS>MOLECULE
molecule
   57    62     1     0     0
SMALL
bcc


@<TRIPOS>ATOM
      1 C27          0.0000     0.0000     0.0000 c2         1 8QV      -0.262200
      2 C28          1.5030     0.0000     0.0000 c3         1 8QV      -0.019400
      3 O29          1.9940     0.0000     1.3420 os         1 8QV      -0.358600
      4 C30          1.3990    -1.0160     2.1580 c3         1 8QV      -0.102600
      5 C31         -0.0720    -0.6570     2.3820 c3         1 8QV      -0.129200
      6 C26         -0.7090    -0.2940     1.0690 ce         1 8QV      -0.278000
      7 C13         -2.1830    -0.2750     0.9740 ca         1 8QV       0.464100
      8 C15         -2.7950     0.0540    -0.2380 ca         1 8QV      -0.250300
      9 N12         -2.9170    -0.5760     2.0400 nb         1 8QV      -0.635000
     10 C11         -4.2320    -0.5730     1.9980 ca         1 8QV       0.448200
     11 C10         -4.9080    -0.2500     0.8270 ca         1 8QV       0.030800
     12 O9          -6.2610    -0.2530     0.8030 os         1 8QV      -0.208200
     13 C14         -4.1740     0.0680    -0.3110 ca         1 8QV      -0.152300
     14 C7          -4.8660     0.4200    -1.5900 c3         1 8QV       0.194800
     15 C16         -4.1450     1.5900    -2.2890 c3         1 8QV      -0.122600
     16 O17         -3.2860     0.8830    -3.2090 os         1 8QV      -0.309400
     17 C18         -3.8400    -0.3240    -3.4440 c2         1 8QV       0.552500
     18 N19         -4.7410    -0.6670    -2.5720 n2         1 8QV      -0.494900
     19 N20         -3.4870    -1.1180    -4.5080 nz         1 8QV      -0.817600
     20 C5          -6.3080     0.7630    -1.3580 ca         1 8QV      -0.146300
     21 C6          -7.0150     1.4380    -2.3340 ca         1 8QV      -0.058000
     22 C4          -6.9330     0.4130    -0.1670 ca         1 8QV       0.174100
     23 C3          -8.2700     0.7400     0.0370 ca         1 8QV      -0.120000
     24 C2          -8.9790     1.4080    -0.9370 ca         1 8QV      -0.094000
     25 C1          -8.3540     1.7640    -2.1300 cp         1 8QV      -0.068000
     26 C8          -9.1110     2.4890    -3.1800 cp         1 8QV      -0.161300
     27 C21        -10.4500     2.8250    -2.9820 ca         1 8QV      -0.085000
     28 C25         -8.4930     2.8490    -4.3770 ca         1 8QV       0.405200
     29 N24         -9.1580     3.4930    -5.3150 nb         1 8QV      -0.678000
     30 C23        -10.4240     3.8250    -5.1710 ca         1 8QV       0.439200
     31 C22        -11.1170     3.5120    -4.0000 ca         1 8QV      -0.062300
     32 C32        -12.4930     3.8750    -3.8510 cg         1 8QV      -0.182000
     33 C33        -13.6280     4.1560    -3.7370 c1         1 8QV      -0.102100
     34 C34        -15.0900     4.7950    -3.2110 c3         1 8QV       0.019000
     35 H1          -0.6530    -0.4490    -0.7390 ha         1 8QV       0.134000
     36 H2           1.7770     0.8230     0.6490 h1         1 8QV       0.191700
     37 H3           1.9050    -0.4770     2.9490 h1         1 8QV       0.124700
     38 H4           0.4940    -0.4280     2.0680 h1         1 8QV       0.124700
     39 H5          -0.5340    -1.4690     2.9300 hc         1 8QV       0.172700
     40 H6          -2.1630     0.5730    -0.9490 ha         1 8QV       0.154000
     41 H7          -4.9460    -0.5630     2.8130 h4         1 8QV       0.065100
     42 H8          -3.6340     1.2830    -3.1930 h1         1 8QV       0.184700
     43 H9          -3.4580     1.8720    -1.5000 h1         1 8QV       0.184700
     44 H10         -2.4960    -1.1390    -4.6430 hn         1 8QV       0.515467
     45 H11         -4.0190    -1.9630    -4.5810 hn         1 8QV       0.515467
     46 H12         -6.6770     1.4210    -3.3630 ha         1 8QV       0.141000
     47 H13         -8.9930     0.6520     0.8380 ha         1 8QV       0.175000
     48 H14         -9.8710     2.0220    -0.9850 ha         1 8QV       0.174000
     49 H15        -10.8270     3.0430    -1.9890 ha         1 8QV       0.151000
     50 H16         -7.4440     3.1150    -4.3300 h4         1 8QV       0.027100
     51 H17        -10.9300     4.4350    -5.9090 h4         1 8QV       0.042100
     52 H18        -15.3270     4.2620    -2.2980 hc         1 8QV       0.070367
     53 H19        -14.6300     5.5620    -2.6000 hc         1 8QV       0.070367
     54 H20        -15.5500     5.3760    -4.0010 hc         1 8QV       0.070367
     55 H21          1.9780    -0.3020    -0.9250 h1         1 8QV       0.191700
     56 H22         -0.6030    -0.8000     1.4490 hc         1 8QV       0.172700
     57 H203        -3.4190    -2.0470    -4.1420 hn         1 8QV       0.515467
@<TRIPOS>BOND
     1    34    33 1
     2    33    32 3
     3    32    31 1
     4    31    30 ar
     5    31    27 ar
     6    30    29 ar
     7    27    26 ar
     8    29    28 ar
     9    26    28 ar
    10    26    25 1
    11    19    17 1
    12    25    21 ar
    13    25    24 ar
    14    17    18 2
    15    17    16 1
    16    21    20 ar
    17    18    14 1
    18    24    23 ar
    19    16    15 1
    20    20    14 1
    21    20    22 ar
    22    14    15 1
    23    14    13 1
    24    23    22 ar
    25    22    12 1
    26    13     8 ar
    27    13    11 ar
    28    12    11 1
    29     8     7 ar
    30    11    10 ar
    31     5     4 1
    32     5     6 1
    33     7     6 1
    34     7     9 ar
    35    10     9 ar
    36     4     3 1
    37     6     1 2
    38     1     2 1
    39     3     2 1
    40     1    35 1
    41     2    36 1
    42     4    37 1
    43     4    38 1
    44     5    39 1
    45     8    40 1
    46    10    41 1
    47    15    42 1
    48    15    43 1
    49    19    44 1
    50    19    45 1
    51    21    46 1
    52    23    47 1
    53    24    48 1
    54    27    49 1
    55    28    50 1
    56    30    51 1
    57    34    52 1
    58    34    53 1
    59    34    54 1
    60     2    55 1
    61     5    56 1
    62    57    19 1
@<TRIPOS>SUBSTRUCTURE
     1 8QV         1 TEMP              0 ****  ****    0 ROOT
