@<TRIPOS>MOLECULE
8QW
   66    70     1     0     0
SMALL
bcc


@<TRIPOS>ATOM
      1 C1           0.0000     0.0000     0.0000 cc         1 8QW      -0.162300
      2 C2          -0.0090     0.0020    -2.3900 cd         1 8QW      -0.067000
      3 C4           1.4020    -0.0050    -2.3620 cd         1 8QW      -0.052000
      4 C6           2.0600    -0.0030    -1.1660 cc         1 8QW      -0.198300
      5 C12         -0.6150     0.1240     4.1240 ca         1 8QW       0.027600
      6 C13         -2.9770     0.5350     4.0580 ca         1 8QW       0.000000
      7 C14         -1.7650     0.4210     3.4050 ca         1 8QW      -0.183000
      8 C15         -3.0490     0.3550     5.4270 ca         1 8QW      -0.154500
      9 C16         -0.6890    -0.0570     5.5030 ca         1 8QW       0.067100
     10 C36          5.0010     5.3190   -10.8630 ca         1 8QW       0.077900
     11 C38          4.3390     4.3230   -11.5590 ca         1 8QW      -0.127000
     12 C37          4.3690     3.0210   -11.0980 ca         1 8QW      -0.033500
     13 C34          5.6980     5.0080    -9.7060 ca         1 8QW      -0.127000
     14 C35          6.0470     3.3270    -9.0750 ca         1 8QW      -0.033500
     15 C26          5.2500     2.4590    -9.7980 ca         1 8QW      -0.104300
     16 C25          5.1870     1.0640    -9.2340 c3         1 8QW      -0.062400
     17 C39          6.6070     0.5170    -9.0660 c3         1 8QW       0.002900
     18 C24          4.4980     1.0920    -7.8940 c          1 8QW       0.560100
     19 O33          4.0970     2.1430    -7.4410 o          1 8QW      -0.620100
     20 C20          3.6040    -0.0390    -6.0020 ca         1 8QW      -0.083400
     21 C22          2.8040    -1.1240    -5.6650 ca         1 8QW      -0.117000
     22 C21          2.0890    -1.1150    -4.4860 ca         1 8QW      -0.066000
     23 C10          2.1700    -0.0170    -3.6310 ca         1 8QW      -0.059000
     24 C19          2.9740     1.0700    -3.9710 ca         1 8QW      -0.066000
     25 C18          3.6900     1.0550    -5.1490 ca         1 8QW      -0.117000
     26 N5           1.3650     0.0000     0.0000 na         1 8QW       0.708000
     27 C3          -0.7020     0.0050    -1.2200 cc         1 8QW      -0.076000
     28 N8          -0.4010     0.0010     1.2680 nd         1 8QW      -0.443300
     29 C9           0.6590     0.0010     2.0720 cd         1 8QW       0.655200
     30 N7           1.7590     0.0000     1.3460 nc         1 8QW      -0.841100
     31 N11          0.6130     0.0020     3.4640 nu         1 8QW      -0.202600
     32 O31          0.4350    -0.3470     6.2130 os         1 8QW      -0.322900
     33 C32          0.2840    -0.5200     7.6240 c3         1 8QW       0.250700
     34 C17         -1.9070     0.0590     6.1500 ca         1 8QW      -0.081000
     35 S27         -4.5980     0.5040     6.2530 sy         1 8QW       0.874300
     36 C30         -5.2890    -1.1730     6.2250 c3         1 8QW       0.028700
     37 O29         -4.2540     0.8790     7.5790 o          1 8QW      -0.592300
     38 O28         -5.3570     1.3710     5.4200 o          1 8QW      -0.592300
     39 H1          -0.5370     0.0000    -3.3370 ha         1 8QW       0.123000
     40 H2           3.1430    -0.0090    -1.1480 h4         1 8QW       0.151000
     41 H3          -3.8730     0.7660     3.4960 ha         1 8QW       0.122000
     42 H4          -1.7120     0.5620     2.3330 ha         1 8QW       0.191000
     43 H6           3.8490     2.2420   -11.6420 ha         1 8QW       0.113500
     44 H7           6.2200     5.7860    -9.1620 ha         1 8QW       0.111000
     45 H8           6.6020     3.2000    -8.1540 ha         1 8QW       0.113500
     46 H9           4.6320     0.4250    -9.9110 hc         1 8QW       0.040700
     47 H10          6.5950    -0.5600    -9.1820 hc         1 8QW       0.012033
     48 H11          6.9770     0.7700    -8.0800 hc         1 8QW       0.012033
     49 H12          7.2530     0.9540    -9.8180 hc         1 8QW       0.012033
     50 H14          2.7410    -1.9770    -6.3290 ha         1 8QW       0.127500
     51 H15          1.4660    -1.9610    -4.2240 ha         1 8QW       0.110500
     52 H16          3.0410     1.9230    -3.3070 ha         1 8QW       0.110500
     53 H17          4.3150     1.9000    -5.4130 ha         1 8QW       0.127500
     54 H18         -1.7850     0.0110    -1.2260 ha         1 8QW       0.130000
     55 H19          1.4590    -0.0860     3.9920 hn         1 8QW       0.302800
     56 H20         -0.1130     0.3890     8.0590 h1         1 8QW      -0.000300
     57 H21          1.2490    -0.7400     8.0660 h1         1 8QW      -0.000300
     58 H22         -0.3970    -1.3400     7.8170 h1         1 8QW      -0.000300
     59 H23         -1.9670    -0.0810     7.2220 ha         1 8QW       0.137000
     60 H24         -4.6240    -1.8460     6.7530 h1         1 8QW       0.058033
     61 H25         -5.3970    -1.5020     5.1990 h1         1 8QW       0.058033
     62 H26         -6.2590    -1.1720     6.7080 h1         1 8QW       0.058033
     63 N23          4.3280    -0.0500    -7.1990 ns         1 8QW      -0.036100
     64 H5           3.7970     4.5640   -12.4650 ha         1 8QW       0.111000
     65 F40          4.9730     6.5920   -11.3120 f          1 8QW      -0.128900
     66 H13          4.7060    -0.9090    -7.5470 hn         1 8QW       0.170500
@<TRIPOS>BOND
     1     1    26 1   
     2     1    27 1   
     3     1    28 2   
     4     2     3 1   
     5     2    27 2   
     6     2    39 1   
     7     3     4 2   
     8     3    23 1   
     9     4    26 1   
    10     4    40 1   
    11     5     7 ar  
    12     5     9 ar  
    13     5    31 1   
    14     6     7 ar  
    15     6     8 ar  
    16     6    41 1   
    17     7    42 1   
    18     8    34 ar  
    19     8    35 1   
    20     9    32 1   
    21     9    34 ar  
    22    10    11 ar  
    23    10    13 ar  
    24    10    65 1   
    25    11    12 ar  
    26    11    64 1   
    27    12    15 ar  
    28    12    43 1   
    29    13    14 ar  
    30    13    44 1   
    31    14    15 ar  
    32    14    45 1   
    33    15    16 1   
    34    16    17 1   
    35    16    18 1   
    36    16    46 1   
    37    17    47 1   
    38    17    48 1   
    39    17    49 1   
    40    18    19 2   
    41    18    63 1   
    42    20    21 ar  
    43    20    25 ar  
    44    20    63 1   
    45    21    22 ar  
    46    21    50 1   
    47    22    23 ar  
    48    22    51 1   
    49    23    24 ar  
    50    24    25 ar  
    51    24    52 1   
    52    25    53 1   
    53    26    30 1   
    54    27    54 1   
    55    28    29 1   
    56    29    30 2   
    57    29    31 1   
    58    31    55 1   
    59    32    33 1   
    60    33    56 1   
    61    33    57 1   
    62    33    58 1   
    63    34    59 1   
    64    35    36 1   
    65    35    37 2   
    66    35    38 2   
    67    36    60 1   
    68    36    61 1   
    69    36    62 1   
    70    63    66 1   
@<TRIPOS>SUBSTRUCTURE
     1 8QW         1 TEMP              0 ****  ****    0 ROOT
