@<TRIPOS>MOLECULE
molecule
  108   113     1     0     0
SMALL
bcc


@<TRIPOS>ATOM
      1 O46          0.0000     0.0000     0.0000 o          1 8QZ      -0.576100
      2 C45          1.2130     0.0000     0.0000 c          1 8QZ       0.662100
      3 C47          1.9670     0.0000     1.3050 c3         1 8QZ       0.065400
      4 O48          1.0370     0.0000     2.3910 os         1 8QZ      -0.393600
      5 C49          1.6530     0.0010     3.6810 c3         1 8QZ       0.126700
      6 N44          1.8860    -0.0060    -1.1670 n          1 8QZ      -0.500800
      7 C43          1.1710    -0.0060    -2.4530 c3         1 8QZ       0.106000
      8 C42          1.7340     1.1210    -3.3230 c3         1 8QZ       0.145800
      9 C51          3.3570    -0.0070    -1.1890 c3         1 8QZ       0.106000
     10 C52          3.8300     1.1210    -2.1140 c3         1 8QZ       0.145800
     11 N41          3.1920     0.9750    -3.4250 nh         1 8QZ      -0.595000
     12 C40          3.7220     1.8870    -4.3440 ca         1 8QZ       0.119600
     13 C39          4.7210     2.7690    -3.9510 ca         1 8QZ      -0.202000
     14 C38          5.2450     3.6700    -4.8580 ca         1 8QZ      -0.081000
     15 C53          3.2540     1.9060    -5.6510 ca         1 8QZ      -0.226000
     16 C54          3.7790     2.8090    -6.5610 ca         1 8QZ       0.129100
     17 O55          3.3210     2.8300    -7.8410 os         1 8QZ      -0.335900
     18 C56          2.2980     1.8920    -8.1790 c3         1 8QZ       0.130700
     19 C37          4.7760     3.6960    -6.1620 ca         1 8QZ       0.110600
     20 N36          5.3100     4.6130    -7.0820 nu         1 8QZ      -0.733300
     21 C35          6.5840     5.1190    -6.8940 ca         1 8QZ       0.962900
     22 N1           7.3350     4.6360    -5.9140 nb         1 8QZ      -0.803000
     23 N34          7.0290     6.0720    -7.7030 nb         1 8QZ      -0.816000
     24 C4           8.2430     6.5690    -7.5440 ca         1 8QZ       0.610800
     25 N5           8.7530     7.5530    -8.3920 na         1 8QZ      -0.085900
     26 C33          8.0990     8.3460    -9.2830 cc         1 8QZ      -0.108300
     27 C32          8.9910     9.1510    -9.8890 cd         1 8QZ      -0.197000
     28 C9          10.3080     8.8160    -9.3270 cd         1 8QZ      -0.220600
     29 C6          10.0930     7.8250    -8.4260 cc         1 8QZ      -0.019600
     30 C7          11.0930     7.0850    -7.5740 c3         1 8QZ      -0.015100
     31 C8          10.4190     6.6750    -6.2620 c3         1 8QZ      -0.024100
     32 C3           9.0500     6.1070    -6.5050 ca         1 8QZ      -0.405900
     33 C2           8.5550     5.1020    -5.6930 ca         1 8QZ       0.513200
     34 C10         11.6000     9.4340    -9.6720 c          1 8QZ       0.707700
     35 O11         12.6190     9.0560    -9.1240 o          1 8QZ      -0.614100
     36 N12         11.6530    10.4160   -10.5930 ns         1 8QZ      -0.447100
     37 C13         12.8980    10.9190   -11.0130 cd         1 8QZ      -0.160700
     38 C29         13.9710    11.2680   -10.1810 cd         1 8QZ       0.366600
     39 C30         13.9900    11.1680    -8.6770 c3         1 8QZ      -0.093700
     40 C31         15.0960    10.2020    -8.2450 c3         1 8QZ      -0.074100
     41 N28         14.9540    11.6960   -10.9330 nc         1 8QZ      -0.505800
     42 N17         14.5440    11.6360   -12.2700 na         1 8QZ       0.064400
     43 C14         13.2750    11.1500   -12.2970 cc         1 8QZ      -0.088600
     44 C15         12.4370    10.9150   -13.5280 c3         1 8QZ      -0.013100
     45 C16         12.6720     9.4930   -14.0410 c3         1 8QZ      -0.093100
     46 C18         15.3430    12.0240   -13.4350 c3         1 8QZ       0.082300
     47 C19         16.1330    10.8140   -13.9380 c3         1 8QZ       0.112400
     48 O20         16.9130    11.1930   -15.0740 os         1 8QZ      -0.424600
     49 C21         17.6930    10.1290   -15.6230 c3         1 8QZ       0.145400
     50 C22         18.4830    10.6460   -16.8280 c3         1 8QZ       0.141400
     51 O23         19.4300    11.6240   -16.3930 os         1 8QZ      -0.407600
     52 C24         20.2230    12.1730   -17.4460 c3         1 8QZ       0.141400
     53 C25         21.1950    13.2040   -16.8690 c3         1 8QZ       0.140400
     54 O26         22.1220    12.5490   -15.9990 os         1 8QZ      -0.419600
     55 C27         23.0800    13.4260   -15.4040 c3         1 8QZ       0.128700
     56 H1           2.5900    -0.8850     1.3620 h1         1 8QZ       0.040200
     57 H2           2.5900     0.8850     1.3620 h1         1 8QZ       0.040200
     58 H3           0.8870     0.0240     4.4470 h1         1 8QZ       0.032367
     59 H4           2.2520    -0.8940     3.7960 h1         1 8QZ       0.032367
     60 H5           2.2860     0.8750     3.7780 h1         1 8QZ       0.032367
     61 H6           0.1150     0.1610    -2.2800 h1         1 8QZ       0.063450
     62 H7           1.3190    -0.9570    -2.9500 h1         1 8QZ       0.063450
     63 H8           1.4990     2.0770    -2.8720 h1         1 8QZ       0.051950
     64 H9           1.2970     1.0650    -4.3130 h1         1 8QZ       0.051950
     65 H10          3.7360     0.1620    -0.1880 h1         1 8QZ       0.063450
     66 H11          3.7150    -0.9580    -1.5650 h1         1 8QZ       0.063450
     67 H12          4.9060     1.0660    -2.2290 h1         1 8QZ       0.051950
     68 H13          3.5560     2.0780    -1.6850 h1         1 8QZ       0.051950
     69 H14          5.0890     2.7500    -2.9330 ha         1 8QZ       0.138000
     70 H15          6.0230     4.3590    -4.5480 ha         1 8QZ       0.177000
     71 H16          2.5140     1.1830    -5.9710 ha         1 8QZ       0.146000
     72 H17          2.0500     1.9910    -9.2290 h1         1 8QZ       0.043367
     73 H18          1.4170     2.0870    -7.5800 h1         1 8QZ       0.043367
     74 H19          2.6510     0.8860    -7.9850 h1         1 8QZ       0.043367
     75 H20          4.7580     4.9220    -7.8580 hn         1 8QZ       0.477800
     76 H21          7.0320     8.3360    -9.4700 h4         1 8QZ       0.184000
     77 H22          8.7580    10.0210   -10.4910 ha         1 8QZ       0.153000
     78 H23         11.9220     7.7460    -7.3510 hc         1 8QZ       0.085200
     79 H24         11.0270     5.9130    -5.7880 hc         1 8QZ       0.058700
     80 H25          9.1590     4.6980    -4.8890 h4         1 8QZ       0.036100
     81 H26         10.8070    10.8190   -10.9430 hn         1 8QZ       0.321500
     82 H27         13.0330    10.8000    -8.3280 hc         1 8QZ       0.056200
     83 H28         14.1790    12.1460    -8.2520 hc         1 8QZ       0.056200
     84 H29         14.8570     9.7930    -7.2710 hc         1 8QZ       0.036033
     85 H30         15.1740     9.3970    -8.9660 hc         1 8QZ       0.036033
     86 H31         16.0390    10.7330    -8.1930 hc         1 8QZ       0.036033
     87 H32         11.3900    11.0420   -13.2810 hc         1 8QZ       0.051200
     88 H33         12.7160    11.6270   -14.2950 hc         1 8QZ       0.051200
     89 H34         11.7250     8.9700   -14.0990 hc         1 8QZ       0.041700
     90 H35         13.3330     8.9690   -13.3620 hc         1 8QZ       0.041700
     91 H36         13.1230     9.5340   -15.0250 hc         1 8QZ       0.041700
     92 H37         16.0300    12.8130   -13.1550 h1         1 8QZ       0.075200
     93 H38         14.6870    12.3780   -14.2210 h1         1 8QZ       0.075200
     94 H39         15.4460    10.0250   -14.2190 h1         1 8QZ       0.038200
     95 H40         16.7890    10.4590   -13.1520 h1         1 8QZ       0.038200
     96 H41         17.0380     9.3260   -15.9390 h1         1 8QZ       0.036700
     97 H42         18.3810     9.7600   -14.8720 h1         1 8QZ       0.036700
     98 H43         17.8020    11.0940   -17.5410 h1         1 8QZ       0.031200
     99 H44         19.0060     9.8220   -17.2970 h1         1 8QZ       0.031200
    100 H45         19.5780    12.6530   -18.1720 h1         1 8QZ       0.030700
    101 H46         20.7820    11.3800   -17.9280 h1         1 8QZ       0.030700
    102 H47         20.6420    13.9500   -16.3120 h1         1 8QZ       0.033200
    103 H48         21.7350    13.6830   -17.6770 h1         1 8QZ       0.033200
    104 H49         23.7070    12.8650   -14.7210 h1         1 8QZ       0.029033
    105 H50         22.5640    14.2080   -14.8600 h1         1 8QZ       0.029033
    106 H51         23.6950    13.8690   -16.1780 h1         1 8QZ       0.029033
    107 H52         11.4090     6.1920    -8.1000 hc         1 8QZ       0.085200
    108 H53         10.3190     7.5550    -5.6380 hc         1 8QZ       0.058700
@<TRIPOS>BOND
     1    55    54 1
     2    53    54 1
     3    53    52 1
     4    52    51 1
     5    33    22 ar
     6    33    32 ar
     7    31    32 1
     8    31    30 1
     9    22    21 ar
    10    32    24 ar
    11    51    50 1
    12    30    29 1
    13    21    20 1
    14    21    23 ar
    15    24    23 ar
    16    24    25 1
    17    50    49 1
    18    20    19 1
    19    29    25 1
    20    29    28 2
    21    48    47 1
    22    48    49 1
    23    35    34 2
    24    25    26 1
    25    18    17 1
    26    47    46 1
    27    17    16 1
    28    19    16 ar
    29    19    14 ar
    30    28    34 1
    31    28    27 1
    32    34    36 1
    33    44    43 1
    34    44    45 1
    35    16    15 ar
    36    26    27 2
    37    46    42 1
    38    43    42 1
    39    43    37 2
    40    42    41 1
    41    14    13 ar
    42    36    37 1
    43    37    38 1
    44    15    12 ar
    45    41    38 2
    46    40    39 1
    47    38    39 1
    48    13    12 ar
    49    12    11 1
    50    11    10 1
    51    11     8 1
    52    10     9 1
    53     8     7 1
    54     9     6 1
    55     7     6 1
    56     6     2 1
    57     2     3 1
    58     2     1 2
    59     3     4 1
    60     5     4 1
    61     3    56 1
    62     3    57 1
    63     5    58 1
    64     5    59 1
    65     5    60 1
    66     7    61 1
    67     7    62 1
    68     8    63 1
    69     8    64 1
    70     9    65 1
    71     9    66 1
    72    10    67 1
    73    10    68 1
    74    13    69 1
    75    14    70 1
    76    15    71 1
    77    18    72 1
    78    18    73 1
    79    18    74 1
    80    20    75 1
    81    26    76 1
    82    27    77 1
    83    30    78 1
    84    31    79 1
    85    33    80 1
    86    36    81 1
    87    39    82 1
    88    39    83 1
    89    40    84 1
    90    40    85 1
    91    40    86 1
    92    44    87 1
    93    44    88 1
    94    45    89 1
    95    45    90 1
    96    45    91 1
    97    46    92 1
    98    46    93 1
    99    47    94 1
   100    47    95 1
   101    49    96 1
   102    49    97 1
   103    50    98 1
   104    50    99 1
   105    52   100 1
   106    52   101 1
   107    53   102 1
   108    53   103 1
   109    55   104 1
   110    55   105 1
   111    55   106 1
   112    30   107 1
   113    31   108 1
@<TRIPOS>SUBSTRUCTURE
     1 8QZ         1 TEMP              0 ****  ****    0 ROOT
