@<TRIPOS>MOLECULE
8R0
   37    39     1     0     0
SMALL
bcc


@<TRIPOS>ATOM
      1 C4           0.0000     0.0000     0.0000 c          1 8R0       0.631100
      2 C7          -0.1580     1.5570     1.8710 c3         1 8R0      -0.037300
      3 C8           0.7780     2.5750     1.2170 c3         1 8R0      -0.019100
      4 C10         -0.2390     3.1960    -0.9860 ca         1 8R0      -0.099000
      5 C13         -1.2690     5.5340     0.0720 ca         1 8R0      -0.095500
      6 C15          0.6220     0.6950     2.8240 c          1 8R0       0.581500
      7 C20          4.2430     0.0130    -0.1600 ca         1 8R0      -0.056000
      8 C12         -1.4880     5.2200    -1.2560 ca         1 8R0      -0.099000
      9 C11         -0.9740     4.0510    -1.7840 ca         1 8R0      -0.095500
     10 C14         -0.5440     4.6730     0.8750 ca         1 8R0      -0.099000
     11 C9          -0.0230     3.5070     0.3440 ca         1 8R0      -0.097300
     12 O16          0.2710     0.6300     3.9830 o          1 8R0      -0.662500
     13 N17          1.6860    -0.0010     2.4330 ns         1 8R0      -0.008100
     14 C18          2.2300     0.0000     1.1670 ca         1 8R0      -0.069400
     15 C19          3.6240     0.0160     1.0700 ca         1 8R0      -0.143000
     16 C1           3.4910     0.0160    -1.3170 ca         1 8R0      -0.122000
     17 C2           2.1180     0.0060    -1.2460 ca         1 8R0      -0.026000
     18 C3           1.4680     0.0000     0.0000 ca         1 8R0      -0.157600
     19 O5          -0.5650    -0.6960    -0.8200 o          1 8R0      -0.681500
     20 N6          -0.7540     0.7060     0.8410 n          1 8R0      -0.120800
     21 C23         -2.2130     0.6290     0.7310 c3         1 8R0       0.090300
     22 H1          -0.9430     2.0730     2.4110 h1         1 8R0       0.075700
     23 H2           1.5110     2.0540     0.6120 hc         1 8R0       0.044700
     24 H3           1.2850     3.1460     1.9850 hc         1 8R0       0.044700
     25 H5          -1.6750     6.4480     0.4870 ha         1 8R0       0.104500
     26 H6           5.3240     0.0210    -0.2200 ha         1 8R0       0.106000
     27 H7          -2.0600     5.8920    -1.8840 ha         1 8R0       0.104000
     28 H8          -1.1440     3.8060    -2.8260 ha         1 8R0       0.104500
     29 H9          -0.3720     4.9190     1.9160 ha         1 8R0       0.109500
     30 H10          2.1310    -0.5770     3.1200 hn         1 8R0       0.180500
     31 H11          4.2240     0.0140     1.9720 ha         1 8R0       0.114000
     32 H12          3.9830     0.0140    -2.2820 ha         1 8R0       0.111000
     33 H13          1.5320     0.0090    -2.1570 ha         1 8R0       0.124000
     34 H16         -2.5460    -0.3560     1.0380 h1         1 8R0       0.017367
     35 H14         -2.5080     0.8060    -0.2960 h1         1 8R0       0.017367
     36 H15         -2.6640     1.3780     1.3710 h1         1 8R0       0.017367
     37 H4           0.1640     2.2800    -1.4000 ha         1 8R0       0.109500
@<TRIPOS>BOND
     1     1    18 1   
     2     1    19 2   
     3     1    20 1   
     4     2     3 1   
     5     2     6 1   
     6     2    20 1   
     7     2    22 1   
     8     3    11 1   
     9     3    23 1   
    10     3    24 1   
    11     4     9 ar  
    12     4    11 ar  
    13     4    37 1   
    14     5     8 ar  
    15     5    10 ar  
    16     5    25 1   
    17     6    12 2   
    18     6    13 1   
    19     7    15 ar  
    20     7    16 ar  
    21     7    26 1   
    22     8     9 ar  
    23     8    27 1   
    24     9    28 1   
    25    10    11 ar  
    26    10    29 1   
    27    13    14 1   
    28    13    30 1   
    29    14    15 ar  
    30    14    18 ar  
    31    15    31 1   
    32    16    17 ar  
    33    16    32 1   
    34    17    18 ar  
    35    17    33 1   
    36    20    21 1   
    37    21    34 1   
    38    21    35 1   
    39    21    36 1   
@<TRIPOS>SUBSTRUCTURE
     1 8R0         1 TEMP              0 ****  ****    0 ROOT
