@<TRIPOS>MOLECULE
molecule
   44    46     1     0     0
SMALL
bcc


@<TRIPOS>ATOM
      1 CAM          0.0000     0.0000     0.0000 ca         1 8R2      -0.126000
      2 CAY          1.3930     0.0000     0.0000 ca         1 8R2      -0.041800
      3 CAW          2.4110     0.0000     1.0680 cc         1 8R2      -0.158900
      4 CAF          2.1740     0.0010     2.4800 cg         1 8R2       0.246500
      5 NAA          1.9700    -0.0100     3.5980 n1         1 8R2      -0.396800
      6 CAS          3.6430    -0.0010     0.4310 cd         1 8R2       0.239900
      7 NAB          4.8670    -0.0010     1.0630 nv         1 8R2      -0.886600
      8 NAP          3.4520    -0.0020    -0.9170 na         1 8R2      -0.197400
      9 CAX          2.0980    -0.0020    -1.2130 ca         1 8R2      -0.010200
     10 CAL          1.3960    -0.0020    -2.4120 ca         1 8R2      -0.105000
     11 CAK          0.0170    -0.0020    -2.4050 ca         1 8R2      -0.119000
     12 CAV         -0.6840    -0.0010    -1.2030 ca         1 8R2       0.084100
     13 OAQ         -2.0430    -0.0010    -1.2110 os         1 8R2      -0.220200
     14 CAU         -2.6840     1.1030    -0.7410 ca         1 8R2       0.162100
     15 CAJ         -4.0660     1.1010    -0.6160 ca         1 8R2      -0.160500
     16 CAH         -4.7180     2.2220    -0.1400 ca         1 8R2      -0.095000
     17 CAI         -1.9550     2.2270    -0.3820 ca         1 8R2      -0.160500
     18 CAG         -2.6060     3.3480     0.0960 ca         1 8R2      -0.095000
     19 CAT         -3.9890     3.3500     0.2150 ca         1 8R2      -0.049400
     20 NAO         -4.6490     4.4860     0.6990 ns         1 8R2      -0.404100
     21 C           -5.7480     4.3520     1.4680 c          1 8R2       0.621100
     22 O           -6.2070     3.2490     1.6810 o          1 8R2      -0.581100
     23 CA          -6.4050     5.5710     2.0640 c3         1 8R2      -0.022500
     24 N           -7.7890     5.2490     2.4340 nz         1 8R2      -0.839600
     25 CB          -5.6320     6.0090     3.3090 c3         1 8R2       0.205400
     26 OG          -6.1840     7.2300     3.8070 oh         1 8R2      -0.736800
     27 HAM         -0.2230     0.5570     0.9020 ha         1 8R2       0.155000
     28 HAB1         5.2420     0.1990     1.9680 hn         1 8R2       0.433800
     29 HAB2         5.6570     0.0680     0.4530 hn         1 8R2       0.433800
     30 HAP          4.3980     0.2450    -1.1290 hn         1 8R2       0.315700
     31 HAL          2.0220     0.1380    -3.2850 ha         1 8R2       0.145000
     32 HAK         -0.4990    -0.0310    -3.3570 ha         1 8R2       0.155000
     33 HAJ         -4.8250     0.4980    -1.0990 ha         1 8R2       0.164500
     34 HAI         -0.8940     2.0560    -0.5100 ha         1 8R2       0.164500
     35 HAH         -5.7970     2.3190    -0.1380 ha         1 8R2       0.142500
     36 HAG         -2.0260     4.0450     0.6900 ha         1 8R2       0.142500
     37 HAO         -4.0980     5.3180     0.7760 hn         1 8R2       0.325500
     38 HA          -6.4030     6.3740     1.3370 hx         1 8R2       0.142700
     39 HN1         -8.2230     4.4990     1.9340 hn         1 8R2       0.492467
     40 HN2         -7.5740     4.8040     3.3040 hn         1 8R2       0.492467
     41 HB1C        -6.0450     5.4030     4.1060 h1         1 8R2       0.070200
     42 HB2C        -4.5780     5.8250     3.1360 h1         1 8R2       0.070200
     43 HG          -5.8620     7.9200     4.3630 ho         1 8R2       0.509000
     44 HN3         -7.8920     6.0600     3.0110 hn         1 8R2       0.492467
@<TRIPOS>BOND
     1     1     2 ar
     2     1    12 ar
     3     2     3 1
     4     2     9 ar
     5     3     4 1
     6     3     6 2
     7     4     5 3
     8     6     7 1
     9     6     8 1
    10     8     9 1
    11     9    10 ar
    12    10    11 ar
    13    11    12 ar
    14    12    13 1
    15    13    14 1
    16    14    15 ar
    17    14    17 ar
    18    15    16 ar
    19    16    19 ar
    20    17    18 ar
    21    18    19 ar
    22    19    20 1
    23    20    21 1
    24    21    22 2
    25    21    23 1
    26    23    24 1
    27    23    25 1
    28    25    26 1
    29     1    27 1
    30     7    28 1
    31     7    29 1
    32     8    30 1
    33    10    31 1
    34    11    32 1
    35    15    33 1
    36    17    34 1
    37    16    35 1
    38    18    36 1
    39    20    37 1
    40    23    38 1
    41    24    39 1
    42    24    40 1
    43    25    41 1
    44    25    42 1
    45    26    43 1
    46    44    24 1
@<TRIPOS>SUBSTRUCTURE
     1 8R2         1 TEMP              0 ****  ****    0 ROOT
