@<TRIPOS>MOLECULE
8R2
   44    46     1     0     0
SMALL
bcc


@<TRIPOS>ATOM
      1 CAM          0.0000     0.0000     0.0000 ca         1 8R2      -0.109000
      2 CAY          1.3930     0.0000     0.0000 ca         1 8R2      -0.034800
      3 CAW          2.4110     0.0000     1.0680 cc         1 8R2      -0.125900
      4 CAF          2.1740     0.0010     2.4800 cg         1 8R2       0.249500
      5 NAA          1.9700    -0.0100     3.5980 n1         1 8R2      -0.423800
      6 CAS          3.6430    -0.0010     0.4310 cd         1 8R2      -0.087100
      7 NAB          4.8670    -0.0010     1.0630 nv         1 8R2      -0.376600
      8 NAP          3.4520    -0.0020    -0.9170 na         1 8R2       0.311600
      9 CAX          2.0980    -0.0020    -1.2130 ca         1 8R2      -0.203200
     10 CAL          1.3960    -0.0020    -2.4120 ca         1 8R2      -0.058000
     11 CAK          0.0170    -0.0020    -2.4050 ca         1 8R2      -0.106000
     12 CAV         -0.6840    -0.0010    -1.2030 ca         1 8R2       0.096100
     13 OAQ         -2.0430    -0.0010    -1.2110 os         1 8R2      -0.194200
     14 CAU         -2.6840     1.1030    -0.7410 ca         1 8R2       0.181100
     15 CAJ         -4.0660     1.1010    -0.6160 ca         1 8R2      -0.153000
     16 CAH         -4.7180     2.2220    -0.1400 ca         1 8R2      -0.052000
     17 CAI         -1.9550     2.2270    -0.3820 ca         1 8R2      -0.153000
     18 CAG         -2.6060     3.3480     0.0960 ca         1 8R2      -0.052000
     19 CAT         -3.9890     3.3500     0.2150 ca         1 8R2      -0.218400
     20 NAO         -4.6490     4.4860     0.6990 ns         1 8R2       0.072900
     21 C           -5.7480     4.3520     1.4680 c          1 8R2       0.516100
     22 O           -6.2070     3.2490     1.6810 o          1 8R2      -0.628100
     23 CA          -6.4050     5.5710     2.0640 c3         1 8R2      -0.181500
     24 N           -7.7890     5.2490     2.4340 nz         1 8R2      -0.042600
     25 CB          -5.6320     6.0090     3.3090 c3         1 8R2       0.304400
     26 OG          -6.1840     7.2300     3.8070 oh         1 8R2      -0.701800
     27 HAM         -0.2230     0.5570     0.9020 ha         1 8R2       0.130000
     28 HAB1         5.2420     0.1990     1.9680 hn         1 8R2       0.259300
     29 HAB2         5.6570     0.0680     0.4530 hn         1 8R2       0.259300
     30 HAP          4.3980     0.2450    -1.1290 hn         1 8R2       0.142700
     31 HAL          2.0220     0.1380    -3.2850 ha         1 8R2       0.109000
     32 HAK         -0.4990    -0.0310    -3.3570 ha         1 8R2       0.122000
     33 HAJ         -4.8250     0.4980    -1.0990 ha         1 8R2       0.139500
     34 HAI         -0.8940     2.0560    -0.5100 ha         1 8R2       0.139500
     35 HAH         -5.7970     2.3190    -0.1380 ha         1 8R2       0.115000
     36 HAG         -2.0260     4.0450     0.6900 ha         1 8R2       0.115000
     37 HAO         -4.0980     5.3180     0.7760 hn         1 8R2       0.163500
     38 HA          -6.4030     6.3740     1.3370 hx         1 8R2       0.102700
     39 HN1         -8.2230     4.4990     1.9340 hn         1 8R2       0.278467
     40 HN2         -7.5740     4.8040     3.3040 hn         1 8R2       0.278467
     41 HB1C        -6.0450     5.4030     4.1060 h1         1 8R2       0.024700
     42 HB2C        -4.5780     5.8250     3.1360 h1         1 8R2       0.024700
     43 HG          -5.8620     7.9200     4.3630 ho         1 8R2       0.489000
     44 HN3         -7.8920     6.0600     3.0110 hn         1 8R2       0.278467
@<TRIPOS>BOND
     1     1     2 ar  
     2     1    12 ar  
     3     1    27 1   
     4     2     3 1   
     5     2     9 ar  
     6     3     4 1   
     7     3     6 2   
     8     4     5 3   
     9     6     7 1   
    10     6     8 1   
    11     7    28 1   
    12     7    29 1   
    13     8     9 1   
    14     8    30 1   
    15     9    10 ar  
    16    10    11 ar  
    17    10    31 1   
    18    11    12 ar  
    19    11    32 1   
    20    12    13 1   
    21    13    14 1   
    22    14    15 ar  
    23    14    17 ar  
    24    15    16 ar  
    25    15    33 1   
    26    16    19 ar  
    27    16    35 1   
    28    17    18 ar  
    29    17    34 1   
    30    18    19 ar  
    31    18    36 1   
    32    19    20 1   
    33    20    21 1   
    34    20    37 1   
    35    21    22 2   
    36    21    23 1   
    37    23    24 1   
    38    23    25 1   
    39    23    38 1   
    40    24    39 1   
    41    24    40 1   
    42    24    44 1   
    43    25    26 1   
    44    25    41 1   
    45    25    42 1   
    46    26    43 1   
@<TRIPOS>SUBSTRUCTURE
     1 8R2         1 TEMP              0 ****  ****    0 ROOT
