@<TRIPOS>MOLECULE
8R3
   62    64     1     0     0
SMALL
bcc


@<TRIPOS>ATOM
      1 C1           0.0000     0.0000     0.0000 c          1 8R3       0.628500
      2 O2          -0.6010     0.0560    -1.0520 o          1 8R3      -0.681500
      3 O32          5.9490     6.0750    -5.7500 o          1 8R3      -0.886300
      4 O33          6.3670     3.8950    -5.7720 o          1 8R3      -0.886300
      5 C26          4.4970     4.5310    -4.5270 ca         1 8R3      -0.095600
      6 C25          4.2030     3.2220    -4.1460 ca         1 8R3      -0.099000
      7 C27          3.6880     5.5800    -4.0840 ca         1 8R3      -0.067000
      8 C28          2.5980     5.3180    -3.2780 ca         1 8R3      -0.134000
      9 C29          2.3050     4.0190    -2.9060 ca         1 8R3      -0.129000
     10 C21          3.1060     2.9690    -3.3370 ca         1 8R3      -0.155400
     11 N20          2.8070     1.6570    -2.9530 ns         1 8R3       0.003900
     12 C19          2.2520     1.4170    -1.7480 c          1 8R3       0.535100
     13 O30          1.8900     2.3430    -1.0530 o          1 8R3      -0.654100
     14 C17          2.0830    -0.0000    -1.2660 c3         1 8R3      -0.025000
     15 N16          1.3460     0.0000     0.0000 n          1 8R3      -0.101800
     16 C15          2.0690     0.0000     1.2780 c3         1 8R3      -0.025300
     17 C13          1.8460    -1.3260     1.9650 c2         1 8R3       0.413200
     18 N14          2.7600    -2.2390     1.9370 n2         1 8R3      -0.473400
     19 N62          2.4990    -3.5080     2.4720 nh         1 8R3      -0.343700
     20 C68          1.3470    -4.2790     2.0000 c3         1 8R3       0.247100
     21 C63          3.3790    -4.0620     3.5040 c3         1 8R3       0.247100
     22 N12          0.6440    -1.5530     2.6280 nu         1 8R3      -0.589200
     23 C11         -0.6230    -1.4710     1.8940 c3         1 8R3       0.192800
     24 C3          -0.7670    -0.0620     1.2960 c3         1 8R3      -0.139700
     25 C4          -0.2080     0.9700     2.2770 c3         1 8R3      -0.011100
     26 C5          -1.3390     1.5740     3.0690 ca         1 8R3      -0.107300
     27 C10         -2.0010     2.6880     2.5890 ca         1 8R3      -0.049000
     28 C6          -1.7190     1.0100     4.2780 ca         1 8R3       0.146100
     29 O23         -1.0710    -0.0880     4.7500 os         1 8R3      -0.311900
     30 C24         -1.5890    -0.6830     5.9420 c3         1 8R3       0.240700
     31 C7          -2.7600     1.5690     5.0050 ca         1 8R3      -0.202000
     32 C8          -3.4160     2.6850     4.5240 ca         1 8R3      -0.064000
     33 C9          -3.0390     3.2440     3.3160 ca         1 8R3      -0.069600
     34 Cl2         -3.8640     4.6470     2.7120 cl         1 8R3      -0.026400
     35 H2           4.8290     2.4040    -4.4840 ha         1 8R3       0.120000
     36 H3           3.9150     6.5990    -4.3740 ha         1 8R3       0.128000
     37 H4           1.9710     6.1320    -2.9370 ha         1 8R3       0.086000
     38 H5           1.4490     3.8200    -2.2730 ha         1 8R3       0.135000
     39 H6           2.9850     0.8990    -3.5820 hn         1 8R3       0.156500
     40 H7           1.5330    -0.5700    -2.0040 h1         1 8R3       0.044200
     41 H8           3.0580    -0.4490    -1.1160 h1         1 8R3       0.044200
     42 H9           3.1270     0.1390     1.0950 h1         1 8R3       0.062700
     43 H10          1.6950     0.8000     1.9060 h1         1 8R3       0.062700
     44 H12          1.0370    -3.9080     1.0300 h1         1 8R3      -0.004967
     45 H13          1.6210    -5.3240     1.9150 h1         1 8R3      -0.004967
     46 H14          0.5300    -4.1760     2.7040 h1         1 8R3      -0.004967
     47 H15          2.7800    -4.5050     4.2900 h1         1 8R3      -0.004967
     48 H16          3.9910    -3.2700     3.9190 h1         1 8R3      -0.004967
     49 H17          4.0180    -4.8190     3.0650 h1         1 8R3      -0.004967
     50 H18         -0.6250    -2.2040     1.0960 h1         1 8R3       0.019700
     51 H19         -1.4460    -1.6620     2.5710 h1         1 8R3       0.019700
     52 H20         -1.8140     0.1430     1.1050 hc         1 8R3       0.066700
     53 H21          0.4880     0.4860     2.9530 hc         1 8R3       0.058700
     54 H22          0.3060     1.7500     1.7280 hc         1 8R3       0.058700
     55 H23         -1.7070     3.1260     1.6430 ha         1 8R3       0.134000
     56 H24         -2.6260    -0.9560     5.7880 h1         1 8R3      -0.002967
     57 H25         -1.0140    -1.5690     6.1820 h1         1 8R3      -0.002967
     58 H26         -1.5200     0.0250     6.7590 h1         1 8R3      -0.002967
     59 H27         -3.0570     1.1310     5.9500 ha         1 8R3       0.119000
     60 H28         -4.2290     3.1220     5.0910 ha         1 8R3       0.109000
     61 H30          0.6440    -1.7720     3.6050 hn         1 8R3       0.309800
     62 C31          5.6640     4.8080    -5.3890 c          1 8R3       0.975200
@<TRIPOS>BOND
     1     1     2 2   
     2     1    15 1   
     3     1    24 1   
     4     3    62 1   
     5     4    62 1   
     6     5     6 ar  
     7     5     7 ar  
     8     5    62 1   
     9     6    10 ar  
    10     6    35 1   
    11     7     8 ar  
    12     7    36 1   
    13     8     9 ar  
    14     8    37 1   
    15     9    10 ar  
    16     9    38 1   
    17    10    11 1   
    18    11    12 1   
    19    11    39 1   
    20    12    13 2   
    21    12    14 1   
    22    14    15 1   
    23    14    40 1   
    24    14    41 1   
    25    15    16 1   
    26    16    17 1   
    27    16    42 1   
    28    16    43 1   
    29    17    18 2   
    30    17    22 1   
    31    18    19 1   
    32    19    20 1   
    33    19    21 1   
    34    20    44 1   
    35    20    45 1   
    36    20    46 1   
    37    21    47 1   
    38    21    48 1   
    39    21    49 1   
    40    22    23 1   
    41    22    61 1   
    42    23    24 1   
    43    23    50 1   
    44    23    51 1   
    45    24    25 1   
    46    24    52 1   
    47    25    26 1   
    48    25    53 1   
    49    25    54 1   
    50    26    27 ar  
    51    26    28 ar  
    52    27    33 ar  
    53    27    55 1   
    54    28    29 1   
    55    28    31 ar  
    56    29    30 1   
    57    30    56 1   
    58    30    57 1   
    59    30    58 1   
    60    31    32 ar  
    61    31    59 1   
    62    32    33 ar  
    63    32    60 1   
    64    33    34 1   
@<TRIPOS>SUBSTRUCTURE
     1 8R3         1 TEMP              0 ****  ****    0 ROOT
