@<TRIPOS>MOLECULE
molecule
   62    64     1     0     0
SMALL
bcc


@<TRIPOS>ATOM
      1 C1           0.0000     0.0000     0.0000 c          1 8R3       0.707500
      2 O2          -0.6010     0.0560    -1.0520 o          1 8R3      -0.638500
      3 O32          5.9490     6.0750    -5.7500 o          1 8R3      -0.838300
      4 O33          6.3670     3.8950    -5.7720 o          1 8R3      -0.838300
      5 C26          4.4970     4.5310    -4.5270 ca         1 8R3      -0.093600
      6 C25          4.2030     3.2220    -4.1460 ca         1 8R3      -0.131000
      7 C27          3.6880     5.5800    -4.0840 ca         1 8R3      -0.102000
      8 C28          2.5980     5.3180    -3.2780 ca         1 8R3      -0.155000
      9 C29          2.3050     4.0190    -2.9060 ca         1 8R3      -0.148000
     10 C21          3.1060     2.9690    -3.3370 ca         1 8R3       0.002600
     11 N20          2.8070     1.6570    -2.9530 ns         1 8R3      -0.461100
     12 C19          2.2520     1.4170    -1.7480 c          1 8R3       0.638100
     13 O30          1.8900     2.3430    -1.0530 o          1 8R3      -0.602100
     14 C17          2.0830    -0.0000    -1.2660 c3         1 8R3       0.033000
     15 N16          1.3460     0.0000     0.0000 n          1 8R3      -0.464800
     16 C15          2.0690     0.0000     1.2780 c3         1 8R3       0.060700
     17 C13          1.8460    -1.3260     1.9650 c2         1 8R3       0.536200
     18 N14          2.7600    -2.2390     1.9370 n2         1 8R3      -0.421400
     19 N62          2.4990    -3.5080     2.4720 nh         1 8R3      -0.611700
     20 C68          1.3470    -4.2790     2.0000 c3         1 8R3       0.254100
     21 C63          3.3790    -4.0620     3.5040 c3         1 8R3       0.254100
     22 N12          0.6440    -1.5530     2.6280 nu         1 8R3      -0.958200
     23 C11         -0.6230    -1.4710     1.8940 c3         1 8R3       0.251800
     24 C3          -0.7670    -0.0620     1.2960 c3         1 8R3      -0.159700
     25 C4          -0.2080     0.9700     2.2770 c3         1 8R3      -0.043100
     26 C5          -1.3390     1.5740     3.0690 ca         1 8R3      -0.099300
     27 C10         -2.0010     2.6880     2.5890 ca         1 8R3      -0.077000
     28 C6          -1.7190     1.0100     4.2780 ca         1 8R3       0.136100
     29 O23         -1.0710    -0.0880     4.7500 os         1 8R3      -0.329900
     30 C24         -1.5890    -0.6830     5.9420 c3         1 8R3       0.125700
     31 C7          -2.7600     1.5690     5.0050 ca         1 8R3      -0.214000
     32 C8          -3.4160     2.6850     4.5240 ca         1 8R3      -0.092000
     33 C9          -3.0390     3.2440     3.3160 ca         1 8R3      -0.004600
     34 Cl2         -3.8640     4.6470     2.7120 cl         1 8R3      -0.109400
     35 H2           4.8290     2.4040    -4.4840 ha         1 8R3       0.143000
     36 H3           3.9150     6.5990    -4.3740 ha         1 8R3       0.153000
     37 H4           1.9710     6.1320    -2.9370 ha         1 8R3       0.110000
     38 H5           1.4490     3.8200    -2.2730 ha         1 8R3       0.146000
     39 H6           2.9950     0.8980    -3.5770 hn         1 8R3       0.315500
     40 H7           1.5330    -0.5700    -2.0040 h1         1 8R3       0.076700
     41 H8           3.0580    -0.4490    -1.1160 h1         1 8R3       0.076700
     42 H9           1.6950     0.8000     1.9060 h1         1 8R3       0.088200
     43 H10          3.1270     0.1390     1.0950 h1         1 8R3       0.088200
     44 H12          0.5300    -4.1760     2.7040 h1         1 8R3       0.025367
     45 H13          1.0370    -3.9080     1.0300 h1         1 8R3       0.025367
     46 H14          1.6210    -5.3240     1.9150 h1         1 8R3       0.025367
     47 H15          4.0020    -3.2730     3.9080 h1         1 8R3       0.025367
     48 H16          2.7800    -4.4920     4.2970 h1         1 8R3       0.025367
     49 H17          4.0070    -4.8300     3.0690 h1         1 8R3       0.025367
     50 H18         -1.4460    -1.6620     2.5710 h1         1 8R3       0.046700
     51 H19         -0.6250    -2.2040     1.0960 h1         1 8R3       0.046700
     52 H20         -1.8140     0.1430     1.1050 hc         1 8R3       0.092700
     53 H21          0.3060     1.7500     1.7280 hc         1 8R3       0.081700
     54 H22          0.4880     0.4860     2.9530 hc         1 8R3       0.081700
     55 H23         -1.7070     3.1260     1.6430 ha         1 8R3       0.166000
     56 H24         -1.5210     0.0250     6.7590 h1         1 8R3       0.040367
     57 H25         -2.6260    -0.9570     5.7880 h1         1 8R3       0.040367
     58 H26         -1.0140    -1.5690     6.1830 h1         1 8R3       0.040367
     59 H27         -3.0570     1.1310     5.9500 ha         1 8R3       0.136000
     60 H28         -4.2290     3.1220     5.0910 ha         1 8R3       0.140000
     61 H30          0.6440    -1.7720     3.6050 hn         1 8R3       0.446800
     62 C31          5.6640     4.8080    -5.3890 c          1 8R3       0.884200
@<TRIPOS>BOND
     1    32    31 ar
     2    32    33 ar
     3    31    28 ar
     4    30    29 1
     5    34    33 1
     6    33    27 ar
     7    28    29 1
     8    28    26 ar
     9    27    26 ar
    10    26    25 1
    11    25    24 1
    12    21    19 1
    13    24    23 1
    14    24     1 1
    15    23    22 1
    16    22    17 1
    17    19    18 1
    18    19    20 1
    19    17    18 2
    20    17    16 1
    21    16    15 1
    22     1    15 1
    23     1     2 2
    24     4    62 1
    25    15    14 1
    26    13    12 2
    27    62     3 1
    28    62     5 1
    29    12    14 1
    30    12    11 1
    31     6     5 ar
    32     6    10 ar
    33     5     7 ar
    34    11    10 1
    35    10     9 ar
    36     7     8 ar
    37     9     8 ar
    38     6    35 1
    39     7    36 1
    40     8    37 1
    41     9    38 1
    42    11    39 1
    43    14    40 1
    44    14    41 1
    45    16    42 1
    46    16    43 1
    47    20    44 1
    48    20    45 1
    49    20    46 1
    50    21    47 1
    51    21    48 1
    52    21    49 1
    53    23    50 1
    54    23    51 1
    55    24    52 1
    56    25    53 1
    57    25    54 1
    58    27    55 1
    59    30    56 1
    60    30    57 1
    61    30    58 1
    62    31    59 1
    63    32    60 1
    64    22    61 1
@<TRIPOS>SUBSTRUCTURE
     1 8R3         1 TEMP              0 ****  ****    0 ROOT
