@<TRIPOS>MOLECULE
molecule
   46    49     1     0     0
SMALL
bcc


@<TRIPOS>ATOM
      1 C4           0.0000     0.0000     0.0000 ca         1 8R7      -0.159000
      2 C14          3.1560     0.9130    -1.5230 ca         1 8R7      -0.286300
      3 C5           1.4090    -0.0120     2.4010 ca         1 8R7      -0.045300
      4 C6           2.1640    -0.0180     3.7050 c3         1 8R7      -0.035400
      5 C11          2.0950     0.0000     1.2080 ca         1 8R7      -0.122000
      6 C7           2.9420    -1.3370     3.8580 c3         1 8R7      -0.073400
      7 C8           4.4350    -0.9590     3.9540 c3         1 8R7      -0.088400
      8 C9           4.4240     0.5050     4.4600 c3         1 8R7      -0.088400
      9 C10          3.2100     1.1160     3.7150 c3         1 8R7      -0.073400
     10 C12          1.3960     0.0000     0.0000 cp         1 8R7      -0.098000
     11 C13          2.1350     0.0010    -1.2830 cp         1 8R7       0.066000
     12 N1           3.5230     0.0280    -3.6810 nb         1 8R7      -0.719000
     13 C3          -0.6880    -0.0010     1.1930 ca         1 8R7      -0.108000
     14 O1          -1.8530     0.7080     3.8170 o          1 8R7      -0.829300
     15 C2           0.0110    -0.0070     2.4030 ca         1 8R7      -0.077600
     16 C15          3.8250     0.8900    -2.7400 ca         1 8R7       0.443200
     17 C16          2.5610    -0.8870    -3.5170 ca         1 8R7       0.455600
     18 C17          2.2530    -1.8010    -4.5360 ca         1 8R7      -0.229300
     19 C18          1.2580    -2.7310    -4.3390 ca         1 8R7       0.142100
     20 O2           0.9610    -3.6150    -5.3260 os         1 8R7      -0.334900
     21 C19         -0.0820    -4.5560    -5.0610 c3         1 8R7       0.129700
     22 C20          0.5510    -2.7760    -3.1340 ca         1 8R7      -0.228000
     23 C21          0.8090    -1.8800    -2.1410 ca         1 8R7      -0.048000
     24 C22          1.8240    -0.9290    -2.3070 ca         1 8R7      -0.185300
     25 O3          -0.3170    -0.6850     4.6130 o          1 8R7      -0.829300
     26 H3          -0.6250     0.4280    -0.7740 ha         1 8R7       0.123000
     27 H14          3.4280     1.6370    -0.7650 ha         1 8R7       0.144000
     28 H4           1.4800     0.1050     4.5360 hc         1 8R7       0.128700
     29 H13          3.1600    -0.1570     1.0890 ha         1 8R7       0.121000
     30 H6           2.7750    -1.9670     2.9930 hc         1 8R7       0.043450
     31 H5           2.6310    -1.8460     4.7620 hc         1 8R7       0.043450
     32 H8           4.9410    -1.6000     4.6650 hc         1 8R7       0.030950
     33 H7           4.9030    -1.0180     2.9790 hc         1 8R7       0.030950
     34 H10          5.3390     1.0130     4.1800 hc         1 8R7       0.030950
     35 H9           4.2710     0.5380     5.5320 hc         1 8R7       0.030950
     36 H12          2.8300     1.9760     4.2530 hc         1 8R7       0.043450
     37 H11          3.4850     1.3850     2.7020 hc         1 8R7       0.043450
     38 H2          -1.7720     0.0130     1.1920 ha         1 8R7       0.150000
     39 H15          4.6190     1.6050    -2.9170 h4         1 8R7       0.010100
     40 H16          2.7140    -1.6990    -5.5120 ha         1 8R7       0.152000
     41 H19         -0.2170    -5.1980    -5.9230 h1         1 8R7       0.038033
     42 H17         -1.0050    -4.0260    -4.8590 h1         1 8R7       0.038033
     43 H18          0.1840    -5.1580    -4.2010 h1         1 8R7       0.038033
     44 H20         -0.2290    -3.5150    -2.9980 ha         1 8R7       0.132000
     45 H21          0.2540    -1.9260    -1.2120 ha         1 8R7       0.165000
     46 C1          -0.7260    -0.0190     3.6820 c          1 8R7       0.880200
@<TRIPOS>BOND
     1    16    12 ar
     2    16     2 ar
     3    12    17 ar
     4     2    11 ar
     5    17    18 ar
     6    17    24 ar
     7    18    19 ar
     8    11    24 ar
     9    11    10 1
    10    21    20 1
    11    24    23 ar
    12    19    20 1
    13    19    22 ar
    14    10     1 ar
    15    10     5 ar
    16     1    13 ar
    17    23    22 ar
    18     5     3 ar
    19    13    15 ar
    20     9     8 1
    21     9     4 1
    22     3    15 ar
    23     3     4 1
    24    15    46 1
    25     8     7 1
    26    25    46 1
    27     4     6 1
    28    46    14 1
    29     7     6 1
    30     1    26 1
    31     2    27 1
    32     4    28 1
    33     5    29 1
    34     6    30 1
    35     6    31 1
    36     7    32 1
    37     7    33 1
    38     8    34 1
    39     8    35 1
    40     9    36 1
    41     9    37 1
    42    13    38 1
    43    16    39 1
    44    18    40 1
    45    21    41 1
    46    21    42 1
    47    21    43 1
    48    22    44 1
    49    23    45 1
@<TRIPOS>SUBSTRUCTURE
     1 8R7         1 TEMP              0 ****  ****    0 ROOT
