@<TRIPOS>MOLECULE
molecule
   39    41     1     0     0
SMALL
bcc


@<TRIPOS>ATOM
      1 N1           0.0000     0.0000     0.0000 nb         1 8R8      -0.665000
      2 C4           4.7720     1.2340    -4.1130 ca         1 8R8       0.079100
      3 C5           6.4750     1.4910    -5.4810 c          1 8R8       0.816600
      4 C7           6.8560     4.7700    -5.7230 c3         1 8R8      -0.207400
      5 C8           7.1430     5.9440    -6.6230 c          1 8R8       0.895600
      6 C10          3.5480     3.2820    -4.4490 ca         1 8R8      -0.078000
      7 C13          2.0270     0.0000     1.1870 ca         1 8R8      -0.232300
      8 C15         -0.0540    -0.0000     2.3480 ca         1 8R8      -0.255300
      9 C11          2.5980     2.8600    -3.5370 ca         1 8R8       0.007400
     10 C9           4.6320     2.4700    -4.7430 ca         1 8R8      -0.028400
     11 N            5.7240     2.6050    -5.6030 n          1 8R8      -0.363000
     12 O4           6.7090     5.9620    -7.7500 o          1 8R8      -0.846800
     13 O3           7.8790     6.9710    -6.1700 o          1 8R8      -0.846800
     14 O2           7.5060     1.2710    -6.0850 o          1 8R8      -0.602500
     15 O1           5.9100     0.6680    -4.5850 os         1 8R8      -0.284200
     16 C3           3.8240     0.8190    -3.1900 ca         1 8R8      -0.198000
     17 C2           2.7390     1.6320    -2.9030 ca         1 8R8       0.132100
     18 O            1.8040     1.2210    -2.0060 os         1 8R8      -0.298900
     19 C1           2.0630     0.0000    -1.3110 c3         1 8R8       0.099800
     20 C            1.5960    -1.1820    -2.1630 c3         1 8R8      -0.115100
     21 C12          1.3190     0.0000     0.0000 ca         1 8R8       0.429600
     22 C16         -0.6930     0.0000     1.1210 ca         1 8R8       0.419200
     23 C14          1.3320    -0.0010     2.3870 ca         1 8R8      -0.096000
     24 H1           6.5380     3.4070    -7.3550 h1         1 8R8       0.076200
     25 H2           5.0690     4.2070    -6.7790 h1         1 8R8       0.076200
     26 H3           7.7880     4.3090    -5.4210 hc         1 8R8       0.043700
     27 H4           6.3200     5.1100    -4.8450 hc         1 8R8       0.043700
     28 H5           3.4120     4.2170    -4.9800 ha         1 8R8       0.170000
     29 H6           3.0960    -0.1710     1.1800 ha         1 8R8       0.141000
     30 H7          -0.6320     0.0140     3.2640 ha         1 8R8       0.134000
     31 H9           3.9310    -0.1380    -2.6940 ha         1 8R8       0.147000
     32 H10          3.1260    -0.0890    -1.1220 h1         1 8R8       0.055700
     33 H11          0.9280    -1.8050    -1.5800 hc         1 8R8       0.051033
     34 H12          2.4550    -1.7650    -2.4730 hc         1 8R8       0.051033
     35 H13          1.0750    -0.8130    -3.0380 hc         1 8R8       0.051033
     36 H14         -1.7760     0.0000     1.0820 h4         1 8R8       0.022100
     37 H15          1.8610     0.0100     3.3330 ha         1 8R8       0.137000
     38 Cl           1.2400     3.8750    -3.1680 cl         1 8R8      -0.091400
     39 C6           6.0020     3.7470    -6.4770 c3         1 8R8       0.130000
@<TRIPOS>BOND
     1    12     5 1   
     2     5    13 1   
     3     5     4 1   
     4    38     9 1   
     5     4    39 1   
     6    39    11 1   
     7     6     9 ar  
     8     6    10 ar  
     9     9    17 ar  
    10    10    11 1   
    11    10     2 ar  
    12    11     3 1   
    13    17    18 1   
    14    17    16 ar  
    15    18    19 1   
    16     8    23 ar  
    17     8    22 ar  
    18    23     7 ar  
    19    22     1 ar  
    20     2    16 ar  
    21     2    15 1   
    22     3    14 2   
    23     3    15 1   
    24     7    21 ar  
    25     1    21 ar  
    26    21    19 1   
    27    19    20 1   
    28    39    24 1   
    29    39    25 1   
    30     4    26 1   
    31     4    27 1   
    32     6    28 1   
    33     7    29 1   
    34     8    30 1   
    35    16    31 1   
    36    19    32 1   
    37    20    33 1   
    38    20    34 1   
    39    20    35 1   
    40    22    36 1   
    41    23    37 1   
@<TRIPOS>SUBSTRUCTURE
     1 8R8         1 TEMP              0 ****  ****    0 ROOT
