@<TRIPOS>MOLECULE
molecule
   30    31     1     0     0
SMALL
bcc


@<TRIPOS>ATOM
      1 N1           0.0000     0.0000     0.0000 n          1 8RA      -0.499800
      2 N3           1.0650    -1.2420     4.5040 nb         1 8RA      -0.743000
      3 C4          -0.1280    -0.9780     2.2300 c3         1 8RA       0.154800
      4 C5           1.9580     0.0000     1.4530 c3         1 8RA       0.154800
      5 C6           1.4700     0.0000     0.0000 c3         1 8RA       0.103000
      6 C7           1.8670    -1.2570     3.4510 ca         1 8RA       0.615200
      7 C8           3.2410    -1.4060     3.6110 ca         1 8RA      -0.267300
      8 C10          2.8840    -1.5180     5.9640 ca         1 8RA      -0.283300
      9 C1          -2.1930     0.8050    -0.8120 c3         1 8RA      -0.170100
     10 C2          -0.6910     0.9010    -0.7250 c          1 8RA       0.663100
     11 C3          -0.6960    -1.0150     0.8060 c3         1 8RA       0.103000
     12 N2           1.3320    -1.1220     2.1750 nh         1 8RA      -0.701300
     13 C9           3.7600    -1.5390     4.8860 ca         1 8RA      -0.072000
     14 C11          1.5320    -1.3660     5.7320 ca         1 8RA       0.446200
     15 O1          -0.1060     1.7890    -1.3070 o          1 8RA      -0.612100
     16 H1          -0.3800    -0.0310     2.6930 h1         1 8RA       0.057950
     17 H2          -0.5490    -1.7920     2.8070 h1         1 8RA       0.057950
     18 H3           1.6790     0.9340     1.9270 h1         1 8RA       0.057950
     19 H4           3.0350    -0.1150     1.4720 h1         1 8RA       0.057950
     20 H5           1.8340     0.8870    -0.5050 h1         1 8RA       0.063200
     21 H6           1.8340    -0.8870    -0.5050 h1         1 8RA       0.063200
     22 H7           3.8960    -1.4180     2.7480 ha         1 8RA       0.144000
     23 H8           3.2580    -1.6190     6.9750 ha         1 8RA       0.138000
     24 H9          -2.6270     1.0460     0.1510 hc         1 8RA       0.061033
     25 H10         -2.4750    -0.2030    -1.0920 hc         1 8RA       0.061033
     26 H11         -2.5580     1.5020    -1.5560 hc         1 8RA       0.061033
     27 H12         -1.7560    -0.7940     0.8320 h1         1 8RA       0.063200
     28 H13         -0.5330    -1.9950     0.3760 h1         1 8RA       0.063200
     29 H14          4.8260    -1.6570     5.0410 ha         1 8RA       0.139000
     30 H15          0.8450    -1.3490     6.5690 h4         1 8RA       0.022100
@<TRIPOS>BOND
     1    13     7 ar  
     2    13     8 ar  
     3     7     6 ar  
     4     8    14 ar  
     5     3    12 1   
     6     3    11 1   
     7     6    12 1   
     8     6     2 ar  
     9    14     2 ar  
    10    12     4 1   
    11    11     1 1   
    12     4     5 1   
    13     9    10 1   
    14     1    10 1   
    15     1     5 1   
    16    10    15 2   
    17     3    16 1   
    18     3    17 1   
    19     4    18 1   
    20     4    19 1   
    21     5    20 1   
    22     5    21 1   
    23     7    22 1   
    24     8    23 1   
    25     9    24 1   
    26     9    25 1   
    27     9    26 1   
    28    11    27 1   
    29    11    28 1   
    30    13    29 1   
    31    14    30 1   
@<TRIPOS>SUBSTRUCTURE
     1 8RA         1 TEMP              0 ****  ****    0 ROOT
