@<TRIPOS>MOLECULE
8RA
   30    31     1     0     0
SMALL
bcc


@<TRIPOS>ATOM
      1 N1           0.0000     0.0000     0.0000 n          1 8RA      -0.166800
      2 N3           1.0650    -1.2420     4.5040 nb         1 8RA      -0.629000
      3 C4          -0.1280    -0.9780     2.2300 c3         1 8RA       0.127300
      4 C5           1.9580     0.0000     1.4530 c3         1 8RA       0.127300
      5 C6           1.4700     0.0000     0.0000 c3         1 8RA       0.047500
      6 C7           1.8670    -1.2570     3.4510 ca         1 8RA       0.489200
      7 C8           3.2410    -1.4060     3.6110 ca         1 8RA      -0.244300
      8 C10          2.8840    -1.5180     5.9640 ca         1 8RA      -0.251300
      9 C1          -2.1930     0.8050    -0.8120 c3         1 8RA      -0.072100
     10 C2          -0.6910     0.9010    -0.7250 c          1 8RA       0.591100
     11 C3          -0.6960    -1.0150     0.8060 c3         1 8RA       0.047500
     12 N2           1.3320    -1.1220     2.1750 nh         1 8RA      -0.469300
     13 C9           3.7600    -1.5390     4.8860 ca         1 8RA      -0.041000
     14 C11          1.5320    -1.3660     5.7320 ca         1 8RA       0.433200
     15 O1          -0.1060     1.7890    -1.3070 o          1 8RA      -0.649100
     16 H1          -0.3800    -0.0310     2.6930 h1         1 8RA       0.030700
     17 H2          -0.5490    -1.7920     2.8070 h1         1 8RA       0.030700
     18 H3           1.6790     0.9340     1.9270 h1         1 8RA       0.030700
     19 H4           3.0350    -0.1150     1.4720 h1         1 8RA       0.030700
     20 H5           1.8340     0.8870    -0.5050 h1         1 8RA       0.035200
     21 H6           1.8340    -0.8870    -0.5050 h1         1 8RA       0.035200
     22 H7           3.8960    -1.4180     2.7480 ha         1 8RA       0.124000
     23 H8           3.2580    -1.6190     6.9750 ha         1 8RA       0.115000
     24 H9          -2.6270     1.0460     0.1510 hc         1 8RA       0.025033
     25 H10         -2.4750    -0.2030    -1.0920 hc         1 8RA       0.025033
     26 H11         -2.5580     1.5020    -1.5560 hc         1 8RA       0.025033
     27 H12         -1.7560    -0.7940     0.8320 h1         1 8RA       0.035200
     28 H13         -0.5330    -1.9950     0.3760 h1         1 8RA       0.035200
     29 H14          4.8260    -1.6570     5.0410 ha         1 8RA       0.108000
     30 H15          0.8450    -1.3490     6.5690 h4         1 8RA      -0.021900
@<TRIPOS>BOND
     1     1     5 1   
     2     1    10 1   
     3     1    11 1   
     4     2     6 ar  
     5     2    14 ar  
     6     3    11 1   
     7     3    12 1   
     8     3    16 1   
     9     3    17 1   
    10     4     5 1   
    11     4    12 1   
    12     4    18 1   
    13     4    19 1   
    14     5    20 1   
    15     5    21 1   
    16     6     7 ar  
    17     6    12 1   
    18     7    13 ar  
    19     7    22 1   
    20     8    13 ar  
    21     8    14 ar  
    22     8    23 1   
    23     9    10 1   
    24     9    24 1   
    25     9    25 1   
    26     9    26 1   
    27    10    15 2   
    28    11    27 1   
    29    11    28 1   
    30    13    29 1   
    31    14    30 1   
@<TRIPOS>SUBSTRUCTURE
     1 8RA         1 TEMP              0 ****  ****    0 ROOT
