@<TRIPOS>MOLECULE
8RC
   84    88     1     0     0
SMALL
bcc


@<TRIPOS>ATOM
      1 C12          0.0000     0.0000     0.0000 ca         1 8RC      -0.138000
      2 C14          0.0000    -0.0060     2.4050 ca         1 8RC      -0.138000
      3 C11          1.3810     0.0000     0.0000 ca         1 8RC      -0.075000
      4 C15          1.3800    -0.0010     2.4060 ca         1 8RC      -0.075000
      5 C13         -0.6950     0.0000     1.2030 ca         1 8RC       0.055600
      6 C10          2.0750     0.0000     1.2020 ca         1 8RC      -0.122400
      7 C1           5.5660     0.6810     2.2020 ca         1 8RC      -0.025500
      8 C5           5.5690     1.6750     4.2690 ca         1 8RC       0.209300
      9 C2           4.1670     0.5700     2.2560 ca         1 8RC       0.497900
     10 C4           4.1780     1.5600     4.3280 ca         1 8RC       0.639300
     11 C38         -0.9930     0.4110     6.4390 c          1 8RC       0.620300
     12 C18         -4.1420     0.1590     2.5370 c3         1 8RC      -0.056400
     13 C20         -4.1480    -1.0030     0.3290 c3         1 8RC      -0.056400
     14 C37          1.5130     3.1770     6.2530 c3         1 8RC      -0.032400
     15 C17         -2.6200     0.0040     2.5730 c3         1 8RC       0.137800
     16 C21         -2.6250    -1.1220     0.4280 c3         1 8RC       0.137800
     17 C36          0.0850     2.6730     6.5480 c3         1 8RC       0.055000
     18 C23         -6.5460     0.3650     0.8530 c3         1 8RC       0.140800
     19 C27         -6.8460    -2.0250     1.0970 c3         1 8RC       0.140800
     20 C24         -8.0640     0.5550     0.8520 c3         1 8RC       0.156300
     21 C26         -8.3640    -1.8340     1.0960 c3         1 8RC       0.156300
     22 C34          1.4310     0.8010     5.9070 c3         1 8RC       0.028000
     23 C19         -4.7480    -0.9970     1.7370 c3         1 8RC       0.131500
     24 C33          2.0840     2.0770     5.3190 c3         1 8RC       0.144100
     25 C32          6.4400     3.8090     5.1810 c3         1 8RC      -0.018100
     26 C41         -3.3460     0.1660     6.9780 c2         1 8RC      -0.033000
     27 C40         -2.2920     0.9660     6.8500 ce         1 8RC      -0.263200
     28 N6           6.2260     1.2370     3.2170 nb         1 8RC      -0.492000
     29 N3           3.5120     1.0140     3.3220 nb         1 8RC      -0.701000
     30 N16         -2.0930     0.0070     1.2020 nh         1 8RC      -0.350000
     31 N35          0.0770     1.2230     6.3090 n          1 8RC      -0.165800
     32 N22         -6.2040    -0.8230     1.6490 n3         1 8RC      -0.536600
     33 N25         -8.7060    -0.6460     0.3010 n3         1 8RC      -0.549600
     34 N31          7.6510     0.1520     1.0370 nz         1 8RC       0.226600
     35 N7           3.4760    -0.0010     1.2030 nu         1 8RC      -0.179300
     36 O30          5.6940    -0.1800     0.0370 o          1 8RC      -0.529100
     37 O39         -0.8830    -0.7790     6.2150 o          1 8RC      -0.650100
     38 O8           3.5080     2.0130     5.4150 os         1 8RC      -0.378100
     39 H1          -0.5420     0.0020    -0.9380 ha         1 8RC       0.135500
     40 H2          -0.5410    -0.0060     3.3440 ha         1 8RC       0.135500
     41 H3           1.9230     0.0000    -0.9380 ha         1 8RC       0.130000
     42 H4           1.9220    -0.0030     3.3440 ha         1 8RC       0.130000
     43 H5          -4.5300     0.1400     3.5480 hc         1 8RC       0.037200
     44 H6          -4.3980     1.0990     2.0630 hc         1 8RC       0.037200
     45 H7          -4.5400    -1.8460    -0.2270 hc         1 8RC       0.037200
     46 H8          -4.4040    -0.0790    -0.1760 hc         1 8RC       0.037200
     47 H9           1.4820     4.1320     5.7420 hc         1 8RC       0.037700
     48 H10          2.0920     3.2410     7.1660 hc         1 8RC       0.037700
     49 H11         -2.3650    -0.9320     3.0550 h1         1 8RC       0.021950
     50 H12         -2.1880     0.8300     3.1260 h1         1 8RC       0.021950
     51 H13         -2.1980    -1.1090    -0.5670 h1         1 8RC       0.021950
     52 H14         -2.3690    -2.0510     0.9240 h1         1 8RC       0.021950
     53 H15         -0.6210     3.1580     5.8850 h1         1 8RC       0.025700
     54 H16         -0.1700     2.8760     7.5810 h1         1 8RC       0.025700
     55 H17         -6.1990     0.2290    -0.1640 h1         1 8RC       0.019450
     56 H18         -6.0740     1.2370     1.2890 h1         1 8RC       0.019450
     57 H19         -6.5910    -2.8820     1.7090 h1         1 8RC       0.019450
     58 H20         -6.5020    -2.1830     0.0820 h1         1 8RC       0.019450
     59 H21         -8.4080     0.7140     1.8670 h1         1 8RC       0.015450
     60 H22         -8.3190     1.4120     0.2410 h1         1 8RC       0.015450
     61 H23         -8.8360    -2.7070     0.6610 h1         1 8RC       0.015450
     62 H24         -8.7100    -1.6980     2.1140 h1         1 8RC       0.015450
     63 H25          1.3740     0.0260     5.1520 h1         1 8RC       0.040200
     64 H26          1.9890     0.4570     6.7690 h1         1 8RC       0.040200
     65 H27         -4.5200    -1.9340     2.2300 h1         1 8RC       0.038700
     66 H28          1.7640     2.2360     4.2970 h1         1 8RC       0.056700
     67 H29          7.3020     4.1920     4.6470 hc         1 8RC       0.021033
     68 H30          5.5540     3.6210     4.5870 hc         1 8RC       0.021033
     69 H31          6.0100     4.3600     6.0090 hc         1 8RC       0.021033
     70 H32         -3.2490    -0.8940     6.7780 ha         1 8RC       0.095500
     71 H33         -4.3030     0.5750     7.2810 ha         1 8RC       0.095500
     72 H35        -10.3860     0.3890    -0.4040 h1         1 8RC       0.002033
     73 H36        -10.6050    -1.3570    -0.2270 h1         1 8RC       0.002033
     74 H37        -10.5670    -0.3200     1.2060 h1         1 8RC       0.002033
     75 H38          5.7830     2.1230     6.3390 hc         1 8RC       0.033200
     76 H39          7.3090     1.8660     5.4810 hc         1 8RC       0.033200
     77 H40         -2.3890     2.0260     7.0500 ha         1 8RC       0.112000
     78 H44          7.9820    -0.2520     0.1830 hn         1 8RC       0.242467
     79 H45          7.9480    -0.4100     1.8100 hn         1 8RC       0.242467
     80 H46          3.9760    -0.4550     0.4640 hn         1 8RC       0.327800
     81 C29          6.3030     0.1900     1.0220 c          1 8RC       0.264600
     82 C28        -10.1610    -0.4720     0.2130 c3         1 8RC       0.189100
     83 H313         8.0070     1.0830     1.1250 hn         1 8RC       0.242467
     84 C9           6.3190     2.3020     5.4150 c3         1 8RC      -0.064700
@<TRIPOS>BOND
     1     1     3 ar  
     2     1     5 ar  
     3     1    39 1   
     4     2     4 ar  
     5     2     5 ar  
     6     2    40 1   
     7     3     6 ar  
     8     3    41 1   
     9     4     6 ar  
    10     4    42 1   
    11     5    30 1   
    12     6    35 1   
    13     7     9 ar  
    14     7    28 ar  
    15     7    81 1   
    16     8    10 ar  
    17     8    28 ar  
    18     8    84 1   
    19     9    29 ar  
    20     9    35 1   
    21    10    29 ar  
    22    10    38 1   
    23    11    27 1   
    24    11    31 1   
    25    11    37 2   
    26    12    15 1   
    27    12    23 1   
    28    12    43 1   
    29    12    44 1   
    30    13    16 1   
    31    13    23 1   
    32    13    45 1   
    33    13    46 1   
    34    14    17 1   
    35    14    24 1   
    36    14    47 1   
    37    14    48 1   
    38    15    30 1   
    39    15    49 1   
    40    15    50 1   
    41    16    30 1   
    42    16    51 1   
    43    16    52 1   
    44    17    31 1   
    45    17    53 1   
    46    17    54 1   
    47    18    20 1   
    48    18    32 1   
    49    18    55 1   
    50    18    56 1   
    51    19    21 1   
    52    19    32 1   
    53    19    57 1   
    54    19    58 1   
    55    20    33 1   
    56    20    59 1   
    57    20    60 1   
    58    21    33 1   
    59    21    61 1   
    60    21    62 1   
    61    22    24 1   
    62    22    31 1   
    63    22    63 1   
    64    22    64 1   
    65    23    32 1   
    66    23    65 1   
    67    24    38 1   
    68    24    66 1   
    69    25    67 1   
    70    25    68 1   
    71    25    69 1   
    72    25    84 1   
    73    26    27 2   
    74    26    70 1   
    75    26    71 1   
    76    27    77 1   
    77    33    82 1   
    78    34    78 1   
    79    34    79 1   
    80    34    81 1   
    81    34    83 1   
    82    35    80 1   
    83    36    81 2   
    84    72    82 1   
    85    73    82 1   
    86    74    82 1   
    87    75    84 1   
    88    76    84 1   
@<TRIPOS>SUBSTRUCTURE
     1 8RC         1 TEMP              0 ****  ****    0 ROOT
