@<TRIPOS>MOLECULE
molecule
   84    88     1     0     0
SMALL
bcc


@<TRIPOS>ATOM
      1 C12          0.0000     0.0000     0.0000 ca         1 8RC      -0.155000
      2 C14          0.0000    -0.0060     2.4050 ca         1 8RC      -0.155000
      3 C11          1.3810     0.0000     0.0000 ca         1 8RC      -0.108500
      4 C15          1.3800    -0.0010     2.4060 ca         1 8RC      -0.108500
      5 C13         -0.6950     0.0000     1.2030 ca         1 8RC       0.125600
      6 C10          2.0750     0.0000     1.2020 ca         1 8RC       0.056600
      7 C1           5.5660     0.6810     2.2020 ca         1 8RC       0.043500
      8 C5           5.5690     1.6750     4.2690 ca         1 8RC       0.272300
      9 C2           4.1670     0.5700     2.2560 ca         1 8RC       0.704900
     10 C4           4.1780     1.5600     4.3280 ca         1 8RC       0.657300
     11 C38         -0.9930     0.4110     6.4390 c          1 8RC       0.685300
     12 C18         -4.1420     0.1590     2.5370 c3         1 8RC      -0.098900
     13 C20         -4.1480    -1.0030     0.3290 c3         1 8RC      -0.098900
     14 C37          1.5130     3.1770     6.2530 c3         1 8RC      -0.091400
     15 C17         -2.6200     0.0040     2.5730 c3         1 8RC       0.163300
     16 C21         -2.6250    -1.1220     0.4280 c3         1 8RC       0.163300
     17 C36          0.0850     2.6730     6.5480 c3         1 8RC       0.099000
     18 C23         -6.5460     0.3650     0.8530 c3         1 8RC       0.158300
     19 C27         -6.8460    -2.0250     1.0970 c3         1 8RC       0.158300
     20 C24         -8.0640     0.5550     0.8520 c3         1 8RC       0.163800
     21 C26         -8.3640    -1.8340     1.0960 c3         1 8RC       0.163800
     22 C34          1.4310     0.8010     5.9070 c3         1 8RC       0.087000
     23 C19         -4.7480    -0.9970     1.7370 c3         1 8RC       0.169500
     24 C33          2.0840     2.0770     5.3190 c3         1 8RC       0.108100
     25 C32          6.4400     3.8090     5.1810 c3         1 8RC      -0.104100
     26 C41         -3.3460     0.1660     6.9780 c2         1 8RC      -0.112000
     27 C40         -2.2920     0.9660     6.8500 ce         1 8RC      -0.262200
     28 N6           6.2260     1.2370     3.2170 nb         1 8RC      -0.620000
     29 N3           3.5120     1.0140     3.3220 nb         1 8RC      -0.795000
     30 N16         -2.0930     0.0070     1.2020 nh         1 8RC      -0.593000
     31 N35          0.0770     1.2230     6.3090 n          1 8RC      -0.499800
     32 N22         -6.2040    -0.8230     1.6490 n3         1 8RC      -0.724600
     33 N25         -8.7060    -0.6460     0.3010 n3         1 8RC      -0.734600
     34 N31          7.6510     0.1520     1.0370 nz         1 8RC      -0.663400
     35 N7           3.4760    -0.0010     1.2030 nu         1 8RC      -0.695300
     36 O30          5.6940    -0.1800     0.0370 o          1 8RC      -0.491100
     37 O39         -0.8830    -0.7790     6.2150 o          1 8RC      -0.608100
     38 O8           3.5080     2.0130     5.4150 os         1 8RC      -0.393100
     39 H1          -0.5420     0.0020    -0.9380 ha         1 8RC       0.156000
     40 H2          -0.5410    -0.0060     3.3440 ha         1 8RC       0.156000
     41 H3           1.9230     0.0000    -0.9380 ha         1 8RC       0.150500
     42 H4           1.9220    -0.0030     3.3440 ha         1 8RC       0.150500
     43 H5          -4.5300     0.1400     3.5480 hc         1 8RC       0.062200
     44 H6          -4.3980     1.0990     2.0630 hc         1 8RC       0.062200
     45 H7          -4.5400    -1.8460    -0.2270 hc         1 8RC       0.062200
     46 H8          -4.4040    -0.0790    -0.1760 hc         1 8RC       0.062200
     47 H9           2.0920     3.2410     7.1660 hc         1 8RC       0.072700
     48 H10          1.4820     4.1320     5.7420 hc         1 8RC       0.072700
     49 H11         -2.3650    -0.9320     3.0550 h1         1 8RC       0.045450
     50 H12         -2.1880     0.8300     3.1260 h1         1 8RC       0.045450
     51 H13         -2.1980    -1.1090    -0.5670 h1         1 8RC       0.045450
     52 H14         -2.3690    -2.0510     0.9240 h1         1 8RC       0.045450
     53 H15         -0.6210     3.1580     5.8850 h1         1 8RC       0.057200
     54 H16         -0.1700     2.8760     7.5810 h1         1 8RC       0.057200
     55 H17         -6.1990     0.2290    -0.1640 h1         1 8RC       0.042450
     56 H18         -6.0740     1.2370     1.2890 h1         1 8RC       0.042450
     57 H19         -6.5020    -2.1830     0.0820 h1         1 8RC       0.042450
     58 H20         -6.5910    -2.8820     1.7090 h1         1 8RC       0.042450
     59 H21         -8.4080     0.7140     1.8670 h1         1 8RC       0.042700
     60 H22         -8.3190     1.4120     0.2410 h1         1 8RC       0.042700
     61 H23         -8.7100    -1.6980     2.1140 h1         1 8RC       0.042700
     62 H24         -8.8360    -2.7070     0.6610 h1         1 8RC       0.042700
     63 H25          1.9890     0.4570     6.7690 h1         1 8RC       0.070200
     64 H26          1.3740     0.0260     5.1520 h1         1 8RC       0.070200
     65 H27         -4.5200    -1.9340     2.2300 h1         1 8RC       0.063700
     66 H28          1.7640     2.2360     4.2970 h1         1 8RC       0.095700
     67 H29          7.3020     4.1920     4.6470 hc         1 8RC       0.054367
     68 H30          5.5540     3.6210     4.5870 hc         1 8RC       0.054367
     69 H31          6.0100     4.3600     6.0090 hc         1 8RC       0.054367
     70 H32         -4.3030     0.5750     7.2810 ha         1 8RC       0.136000
     71 H33         -3.2490    -0.8940     6.7780 ha         1 8RC       0.136000
     72 H35        -10.6050    -1.3570    -0.2260 h1         1 8RC       0.034367
     73 H36        -10.5670    -0.3200     1.2060 h1         1 8RC       0.034367
     74 H37        -10.3860     0.3890    -0.4040 h1         1 8RC       0.034367
     75 H38          7.3090     1.8660     5.4810 hc         1 8RC       0.070700
     76 H39          5.7830     2.1230     6.3390 hc         1 8RC       0.070700
     77 H40         -2.3890     2.0260     7.0500 ha         1 8RC       0.132000
     78 H44          8.0100     1.0820     1.1270 hn         1 8RC       0.477800
     79 H45          7.9590    -0.4020     1.8110 hn         1 8RC       0.477800
     80 H46          3.9760    -0.4570     0.4650 hn         1 8RC       0.487800
     81 C29          6.3030     0.1900     1.0220 c          1 8RC       0.434600
     82 C28        -10.1610    -0.4720     0.2130 c3         1 8RC       0.153100
     83 H313         8.0060    -0.2630     0.1980 hn         1 8RC       0.477800
     84 C9           6.3190     2.3020     5.4150 c3         1 8RC      -0.126700
@<TRIPOS>BOND
     1    25    84 1   
     2    84     8 1   
     3     8    28 ar  
     4     8    10 ar  
     5    28     7 ar  
     6    34    81 1   
     7    38    10 1   
     8    38    24 1   
     9    10    29 ar  
    10     7    81 1   
    11     7     9 ar  
    12    81    36 2   
    13    14    24 1   
    14    14    17 1   
    15    37    11 2   
    16    24    22 1   
    17    17    31 1   
    18    29     9 ar  
    19    22    31 1   
    20     9    35 1   
    21    31    11 1   
    22    11    27 1   
    23    35     6 1   
    24    27    26 2   
    25     6     3 ar  
    26     6     4 ar  
    27     3     1 ar  
    28     4     2 ar  
    29     1     5 ar  
    30     2     5 ar  
    31     5    30 1   
    32    30    15 1   
    33    30    16 1   
    34    15    12 1   
    35    16    13 1   
    36    12    23 1   
    37    13    23 1   
    38    23    32 1   
    39    32    19 1   
    40    32    18 1   
    41    19    21 1   
    42    18    20 1   
    43    21    33 1   
    44    33    20 1   
    45    33    82 1   
    46     1    39 1   
    47     2    40 1   
    48     3    41 1   
    49     4    42 1   
    50    12    43 1   
    51    12    44 1   
    52    13    45 1   
    53    13    46 1   
    54    14    47 1   
    55    14    48 1   
    56    15    49 1   
    57    15    50 1   
    58    16    51 1   
    59    16    52 1   
    60    17    53 1   
    61    17    54 1   
    62    18    55 1   
    63    18    56 1   
    64    19    57 1   
    65    19    58 1   
    66    20    59 1   
    67    20    60 1   
    68    21    61 1   
    69    21    62 1   
    70    22    63 1   
    71    22    64 1   
    72    23    65 1   
    73    24    66 1   
    74    25    67 1   
    75    25    68 1   
    76    25    69 1   
    77    26    70 1   
    78    26    71 1   
    79    82    72 1   
    80    82    73 1   
    81    82    74 1   
    82    84    75 1   
    83    84    76 1   
    84    27    77 1   
    85    34    78 1   
    86    34    79 1   
    87    35    80 1   
    88    83    34 1   
@<TRIPOS>SUBSTRUCTURE
     1 8RC         1 TEMP              0 ****  ****    0 ROOT
