@<TRIPOS>MOLECULE
molecule
   67    71     1     0     0
SMALL
bcc


@<TRIPOS>ATOM
      1 C10          0.0000     0.0000     0.0000 cc         1 8RD      -0.049000
      2 C11          1.3600     0.0000     0.0000 cd         1 8RD      -0.060300
      3 C16         -2.1280    -0.0030    -3.6860 ca         1 8RD       0.179900
      4 C15         -1.5120    -1.1610    -3.2410 ca         1 8RD      -0.211000
      5 C14         -0.8200    -1.1650    -2.0460 ca         1 8RD      -0.051000
      6 C13         -0.7420    -0.0010    -1.2850 ca         1 8RD      -0.099000
      7 C18         -2.0540     1.1590    -2.9380 ca         1 8RD      -0.268000
      8 C19         -1.3640     1.1680    -1.7370 ca         1 8RD       0.191100
      9 C21         -1.9500     3.4610    -1.5250 c3         1 8RD       0.139400
     10 C22         -1.7600     4.6370    -0.5640 c3         1 8RD      -0.000100
     11 C01          6.0070    -1.4240    -0.7690 c3         1 8RD       0.146100
     12 C04          3.3750     0.0000     1.4860 cd         1 8RD       0.278800
     13 C07          1.3840     0.0000     2.3770 cd         1 8RD      -0.065300
     14 C08         -0.0250    -0.0100     2.3970 cd         1 8RD      -0.093000
     15 C09         -0.7100    -0.0050     1.2240 cc         1 8RD      -0.093000
     16 C23         -2.4550     5.8540    -1.1180 cc         1 8RD      -0.217600
     17 C24         -1.9330     6.7920    -1.9430 cd         1 8RD      -0.129600
     18 C25         -0.5310     6.8200    -2.4910 c3         1 8RD      -0.022800
     19 C29         -3.7930     6.2540    -0.8880 cc         1 8RD       0.270800
     20 C30         -4.7900     5.5540    -0.0520 c          1 8RD       0.611600
     21 C33         -7.0430     5.3940     0.9070 c3         1 8RD       0.058500
     22 C34         -8.2920     4.9990     0.1120 c3         1 8RD       0.120400
     23 C36         -7.8010     6.5770    -1.6290 c3         1 8RD       0.120400
     24 C37         -6.5260     7.0530    -0.9230 c3         1 8RD       0.058500
     25 F17         -2.7970    -0.0060    -4.8610 f          1 8RD      -0.137900
     26 N05          3.4750     0.0020     2.7890 nc         1 8RD      -0.343700
     27 N06          2.3050     0.0020     3.3260 nc         1 8RD      -0.099000
     28 N12          2.0500     0.0000     1.1760 na         1 8RD      -0.043200
     29 N26         -2.9060     7.6990    -2.1830 na         1 8RD       0.147400
     30 N28         -3.9810     7.3710    -1.5620 nd         1 8RD      -0.520800
     31 N32         -6.0660     5.9820    -0.0240 n          1 8RD      -0.479800
     32 O20         -1.2910     2.3070    -1.0010 os         1 8RD      -0.316900
     33 O31         -4.4560     4.5900     0.6100 o          1 8RD      -0.611100
     34 O35         -8.7390     6.1220    -0.6520 os         1 8RD      -0.422600
     35 H1           1.8990     0.0020    -0.9400 h4         1 8RD       0.171000
     36 H2          -1.5730    -2.0670    -3.8320 ha         1 8RD       0.149000
     37 H3          -0.3400    -2.0720    -1.7000 ha         1 8RD       0.149000
     38 H4          -2.5370     2.0620    -3.2910 ha         1 8RD       0.155000
     39 H5          -3.0070     3.2540    -1.6370 h1         1 8RD       0.040700
     40 H6          -1.5260     3.7120    -2.4900 h1         1 8RD       0.040700
     41 H7          -2.1830     4.3870     0.4010 hc         1 8RD       0.075700
     42 H8          -0.7030     4.8450    -0.4530 hc         1 8RD       0.075700
     43 H9           6.8680    -0.9270    -0.3400 h1         1 8RD       0.033367
     44 H10          6.2570    -2.4560    -0.9880 h1         1 8RD       0.033367
     45 H11          5.7190    -0.9210    -1.6850 h1         1 8RD       0.033367
     46 H12          4.2180     0.5110    -0.4020 h1         1 8RD       0.052200
     47 H13          5.3690     0.5110     0.9410 h1         1 8RD       0.052200
     48 H14         -0.5580    -0.0140     3.3410 ha         1 8RD       0.165000
     49 H15         -1.7930    -0.0050     1.2260 ha         1 8RD       0.154000
     50 H16          0.1180     6.2340    -1.8520 hc         1 8RD       0.053033
     51 H17         -0.1760     7.8430    -2.5250 hc         1 8RD       0.053033
     52 H18         -0.5260     6.4020    -3.4910 hc         1 8RD       0.053033
     53 H19         -2.4400     8.5780    -4.0230 h1         1 8RD       0.062700
     54 H20         -2.0120     9.5430    -2.6030 h1         1 8RD       0.062700
     55 H21         -3.7050     9.4010    -3.0990 h1         1 8RD       0.062700
     56 H22         -7.3090     6.1230     1.6630 h1         1 8RD       0.075450
     57 H23         -6.6160     4.5150     1.3740 h1         1 8RD       0.075450
     58 H24         -9.0740     4.6940     0.7970 h1         1 8RD       0.053450
     59 H25         -8.0500     4.1810    -0.5560 h1         1 8RD       0.053450
     60 H26         -7.5580     5.7630    -2.3020 h1         1 8RD       0.053450
     61 H27         -8.2320     7.3990    -2.1880 h1         1 8RD       0.053450
     62 H28         -6.7420     7.9440    -0.3460 h1         1 8RD       0.075450
     63 H29         -5.7600     7.2640    -1.6590 h1         1 8RD       0.075450
     64 H30          5.1550    -1.8620     1.0260 hn         1 8RD       0.369800
     65 C03          4.5190     0.0000     0.5040 c3         1 8RD       0.169500
     66 C27         -2.7560     8.8820    -3.0320 c3         1 8RD       0.049600
     67 N02          4.8920    -1.3860     0.1860 n7         1 8RD      -0.824200
@<TRIPOS>BOND
     1    33    20 2
     2    10     9 1
     3    10    16 1
     4     9    32 1
     5    21    22 1
     6    21    31 1
     7    20    19 1
     8    20    31 1
     9    16    19 1
    10    16    17 2
    11    22    34 1
    12    32     8 1
    13    19    30 2
    14     7     8 ar
    15     7     3 ar
    16    31    24 1
    17    25     3 1
    18    15    14 2
    19    15     1 1
    20     8     6 ar
    21    14    13 1
    22     3     4 ar
    23    17    18 1
    24    17    29 1
    25     6     1 1
    26     6     5 ar
    27    30    29 1
    28     4     5 ar
    29    34    23 1
    30     1     2 2
    31    29    66 1
    32    24    23 1
    33    13    27 2
    34    13    28 1
    35    27    26 1
    36     2    28 1
    37    28    12 1
    38    26    12 2
    39    12    65 1
    40    11    67 1
    41    65    67 1
    42     2    35 1
    43     4    36 1
    44     5    37 1
    45     7    38 1
    46     9    39 1
    47     9    40 1
    48    10    41 1
    49    10    42 1
    50    11    43 1
    51    11    44 1
    52    11    45 1
    53    65    46 1
    54    65    47 1
    55    14    48 1
    56    15    49 1
    57    18    50 1
    58    18    51 1
    59    18    52 1
    60    66    53 1
    61    66    54 1
    62    66    55 1
    63    21    56 1
    64    21    57 1
    65    22    58 1
    66    22    59 1
    67    23    60 1
    68    23    61 1
    69    24    62 1
    70    24    63 1
    71    67    64 1
@<TRIPOS>SUBSTRUCTURE
     1 8RD         1 TEMP              0 ****  ****    0 ROOT
