@<TRIPOS>MOLECULE
8RD
   67    71     1     0     0
SMALL
bcc


@<TRIPOS>ATOM
      1 C10          0.0000     0.0000     0.0000 cc         1 8RD       0.010000
      2 C11          1.3600     0.0000     0.0000 cd         1 8RD      -0.263300
      3 C16         -2.1280    -0.0030    -3.6860 ca         1 8RD       0.155900
      4 C15         -1.5120    -1.1610    -3.2410 ca         1 8RD      -0.180000
      5 C14         -0.8200    -1.1650    -2.0460 ca         1 8RD      -0.018000
      6 C13         -0.7420    -0.0010    -1.2850 ca         1 8RD      -0.108000
      7 C18         -2.0540     1.1590    -2.9380 ca         1 8RD      -0.250000
      8 C19         -1.3640     1.1680    -1.7370 ca         1 8RD       0.203100
      9 C21         -1.9500     3.4610    -1.5250 c3         1 8RD       0.201400
     10 C22         -1.7600     4.6370    -0.5640 c3         1 8RD       0.052900
     11 C01          6.0070    -1.4240    -0.7690 c3         1 8RD       0.180100
     12 C04          3.3750     0.0000     1.4860 cc         1 8RD       0.045800
     13 C07          1.3840     0.0000     2.3770 cd         1 8RD      -0.274300
     14 C08         -0.0250    -0.0100     2.3970 cd         1 8RD      -0.022000
     15 C09         -0.7100    -0.0050     1.2240 cc         1 8RD      -0.104000
     16 C23         -2.4550     5.8540    -1.1180 cc         1 8RD      -0.200600
     17 C24         -1.9330     6.7920    -1.9430 cd         1 8RD      -0.325600
     18 C25         -0.5310     6.8200    -2.4910 c3         1 8RD       0.104200
     19 C29         -3.7930     6.2540    -0.8880 cc         1 8RD       0.259800
     20 C30         -4.7900     5.5540    -0.0520 c          1 8RD       0.541600
     21 C33         -7.0430     5.3940     0.9070 c3         1 8RD      -0.021500
     22 C34         -8.2920     4.9990     0.1120 c3         1 8RD       0.200400
     23 C36         -7.8010     6.5770    -1.6290 c3         1 8RD       0.200400
     24 C37         -6.5260     7.0530    -0.9230 c3         1 8RD      -0.021500
     25 F17         -2.7970    -0.0060    -4.8610 f          1 8RD      -0.128900
     26 N05          3.4750     0.0020     2.7890 nd         1 8RD      -0.298700
     27 N06          2.3050     0.0020     3.3260 nc         1 8RD      -0.087000
     28 N12          2.0500     0.0000     1.1760 na         1 8RD       0.525800
     29 N26         -2.9060     7.6990    -2.1830 na         1 8RD       0.614400
     30 N28         -3.9810     7.3710    -1.5620 nd         1 8RD      -0.638800
     31 N32         -6.0660     5.9820    -0.0240 n          1 8RD      -0.126800
     32 O20         -1.2910     2.3070    -1.0010 os         1 8RD      -0.294900
     33 O31         -4.4560     4.5900     0.6100 o          1 8RD      -0.661100
     34 O35         -8.7390     6.1220    -0.6520 os         1 8RD      -0.408600
     35 H1           1.8990     0.0020    -0.9400 h4         1 8RD       0.149000
     36 H2          -1.5730    -2.0670    -3.8320 ha         1 8RD       0.124000
     37 H3          -0.3400    -2.0720    -1.7000 ha         1 8RD       0.114000
     38 H4          -2.5370     2.0620    -3.2910 ha         1 8RD       0.140000
     39 H5          -3.0070     3.2540    -1.6370 h1         1 8RD       0.006700
     40 H6          -1.5260     3.7120    -2.4900 h1         1 8RD       0.006700
     41 H7          -2.1830     4.3870     0.4010 hc         1 8RD       0.043700
     42 H8          -0.7030     4.8450    -0.4530 hc         1 8RD       0.043700
     43 H9           6.8680    -0.9270    -0.3400 h1         1 8RD      -0.000633
     44 H10          6.2570    -2.4560    -0.9880 h1         1 8RD      -0.000633
     45 H11          5.7190    -0.9210    -1.6850 h1         1 8RD      -0.000633
     46 H12          4.2180     0.5110    -0.4020 h1         1 8RD       0.015700
     47 H13          5.3690     0.5110     0.9410 h1         1 8RD       0.015700
     48 H14         -0.5580    -0.0140     3.3410 ha         1 8RD       0.128000
     49 H15         -1.7930    -0.0050     1.2260 ha         1 8RD       0.127000
     50 H16          0.1180     6.2340    -1.8520 hc         1 8RD       0.013033
     51 H17         -0.1760     7.8430    -2.5250 hc         1 8RD       0.013033
     52 H18         -0.5260     6.4020    -3.4910 hc         1 8RD       0.013033
     53 H19         -2.4400     8.5780    -4.0230 h1         1 8RD       0.030700
     54 H20         -2.0120     9.5430    -2.6030 h1         1 8RD       0.030700
     55 H21         -3.7050     9.4010    -3.0990 h1         1 8RD       0.030700
     56 H22         -7.3090     6.1230     1.6630 h1         1 8RD       0.051450
     57 H23         -6.6160     4.5150     1.3740 h1         1 8RD       0.051450
     58 H24         -9.0740     4.6940     0.7970 h1         1 8RD       0.013200
     59 H25         -8.0500     4.1810    -0.5560 h1         1 8RD       0.013200
     60 H26         -7.5580     5.7630    -2.3020 h1         1 8RD       0.013200
     61 H27         -8.2320     7.3990    -2.1880 h1         1 8RD       0.013200
     62 H28         -6.7420     7.9440    -0.3460 h1         1 8RD       0.051450
     63 H29         -5.7600     7.2640    -1.6590 h1         1 8RD       0.051450
     64 H30          5.1550    -1.8620     1.0260 hn         1 8RD       0.268800
     65 C03          4.5190     0.0000     0.5040 c3         1 8RD       0.177500
     66 C27         -2.7560     8.8820    -3.0320 c3         1 8RD      -0.010400
     67 N02          4.8920    -1.3860     0.1860 n7         1 8RD      -0.598200
@<TRIPOS>BOND
     1     1     2 2   
     2     1     6 1   
     3     1    15 1   
     4     2    28 1   
     5     2    35 1   
     6     3     4 ar  
     7     3     7 ar  
     8     3    25 1   
     9     4     5 ar  
    10     4    36 1   
    11     5     6 ar  
    12     5    37 1   
    13     6     8 ar  
    14     7     8 ar  
    15     7    38 1   
    16     8    32 1   
    17     9    10 1   
    18     9    32 1   
    19     9    39 1   
    20     9    40 1   
    21    10    16 1   
    22    10    41 1   
    23    10    42 1   
    24    11    43 1   
    25    11    44 1   
    26    11    45 1   
    27    11    67 1   
    28    12    26 2   
    29    12    28 1   
    30    12    65 1   
    31    13    14 1   
    32    13    27 2   
    33    13    28 1   
    34    14    15 2   
    35    14    48 1   
    36    15    49 1   
    37    16    17 2   
    38    16    19 1   
    39    17    18 1   
    40    17    29 1   
    41    18    50 1   
    42    18    51 1   
    43    18    52 1   
    44    19    20 1   
    45    19    30 2   
    46    20    31 1   
    47    20    33 2   
    48    21    22 1   
    49    21    31 1   
    50    21    56 1   
    51    21    57 1   
    52    22    34 1   
    53    22    58 1   
    54    22    59 1   
    55    23    24 1   
    56    23    34 1   
    57    23    60 1   
    58    23    61 1   
    59    24    31 1   
    60    24    62 1   
    61    24    63 1   
    62    26    27 1   
    63    29    30 1   
    64    29    66 1   
    65    46    65 1   
    66    47    65 1   
    67    53    66 1   
    68    54    66 1   
    69    55    66 1   
    70    64    67 1   
    71    65    67 1   
@<TRIPOS>SUBSTRUCTURE
     1 8RD         1 TEMP              0 ****  ****    0 ROOT
