@<TRIPOS>MOLECULE
molecule
   64    68     1     0     0
SMALL
bcc


@<TRIPOS>ATOM
      1 C1           0.0000     0.0000     0.0000 cc         1 8RH       0.693600
      2 C2           2.0880     0.0000     1.1960 cc         1 8RH       0.320600
      3 C3           1.4020     0.0000     0.0000 cc         1 8RH      -0.401300
      4 C8          -0.4590    -0.0190     3.6550 cc         1 8RH      -0.077300
      5 C9           0.6620    -0.0220     4.4620 cd         1 8RH       0.028600
      6 C11          4.2260     0.0000    -0.0480 c3         1 8RH       0.226800
      7 C12          5.7260    -0.0000     0.2490 c3         1 8RH      -0.153400
      8 C13          6.5070     0.0000    -1.0670 c3         1 8RH       0.621900
      9 O18         -0.6710    -0.0000    -1.1800 os         1 8RH      -0.310400
     10 C20         -4.1740    -0.2590    -2.1430 ca         1 8RH       0.082900
     11 F36         -4.9270    -0.7630    -3.1450 f          1 8RH      -0.110900
     12 C22         -4.7830     0.3830    -1.0710 ca         1 8RH       0.116100
     13 O37         -6.1360     0.5100    -1.0350 os         1 8RH      -0.310900
     14 C38         -6.6940     1.1820     0.0960 c3         1 8RH       0.129700
     15 C24         -4.0100     0.8940    -0.0400 ca         1 8RH      -0.201000
     16 C23         -2.6340     0.7660    -0.0770 ca         1 8RH      -0.111000
     17 C19         -2.0240     0.1250    -1.1450 ca         1 8RH       0.046100
     18 C21         -2.7960    -0.3880    -2.1790 ca         1 8RH       0.129900
     19 F35         -2.2030    -1.0170    -3.2180 f          1 8RH      -0.110900
     20 N5          -0.6720    -0.0060     1.1280 nd         1 8RH      -0.634800
     21 N6          -0.0100    -0.0120     2.3590 na         1 8RH       0.240200
     22 N7           1.7350    -0.0180     3.6800 nd         1 8RH      -0.291600
     23 C4           1.3560    -0.0130     2.4070 cc         1 8RH      -0.128300
     24 N10          3.4790    -0.0010     1.2120 nu         1 8RH      -0.780600
     25 F16          6.1770    -1.1420    -1.8060 f          1 8RH      -0.222300
     26 F15          6.1780     1.1430    -1.8050 f          1 8RH      -0.222300
     27 F14          7.8790     0.0010    -0.7960 f          1 8RH      -0.222300
     28 C17         -1.8640    -0.0210     4.1000 ca         1 8RH       0.009200
     29 C28         -2.8730    -0.4510     3.2310 ca         1 8RH      -0.131000
     30 C29         -4.1740    -0.4540     3.6430 ca         1 8RH      -0.104000
     31 C27         -4.4990    -0.0270     4.9350 ca         1 8RH      -0.154600
     32 C25         -3.4910     0.4040     5.8040 ca         1 8RH      -0.013300
     33 C30         -3.8420     0.8630     7.1950 c3         1 8RH      -0.044800
     34 C26         -2.1890     0.4000     5.3940 ca         1 8RH      -0.128000
     35 C31         -5.9060    -0.0220     5.3770 c          1 8RH       0.678700
     36 O33         -6.1790     0.2440     6.5330 o          1 8RH      -0.609100
     37 N32         -6.8890    -0.3130     4.5030 ns         1 8RH      -0.551900
     38 C34         -8.2860    -0.3090     4.9430 cx         1 8RH       0.059700
     39 C42         -9.2770    -1.1700     4.1570 cx         1 8RH      -0.157400
     40 C41         -9.3140     0.3540     4.0230 cx         1 8RH      -0.157400
     41 H1           1.9440    -0.0740    -0.9350 ha         1 8RH       0.167000
     42 H2           0.6660    -0.0330     5.5450 h4         1 8RH       0.194000
     43 H3           3.9700     0.8850    -0.6180 h1         1 8RH       0.065700
     44 H4           3.9700    -0.8840    -0.6200 h1         1 8RH       0.065700
     45 H5           5.9820     0.8840     0.8200 hc         1 8RH       0.088700
     46 H6           5.9820    -0.8850     0.8190 hc         1 8RH       0.088700
     47 H7          -6.4480     0.6360     0.9990 h1         1 8RH       0.044367
     48 H8          -7.7700     1.2360    -0.0110 h1         1 8RH       0.044367
     49 H9          -6.2860     2.1840     0.1580 h1         1 8RH       0.044367
     50 H10         -4.4850     1.3940     0.7950 ha         1 8RH       0.152000
     51 H11         -2.0310     1.1660     0.7300 ha         1 8RH       0.193000
     52 H12          3.9700     0.0100     2.0840 hn         1 8RH       0.467800
     53 H13         -2.6210    -0.7820     2.2310 ha         1 8RH       0.159000
     54 H14         -4.9550    -0.7870     2.9700 ha         1 8RH       0.124000
     55 H15         -2.9450     1.1980     7.7020 hc         1 8RH       0.056033
     56 H16         -4.5510     1.6800     7.1380 hc         1 8RH       0.056033
     57 H17         -4.2820     0.0410     7.7470 hc         1 8RH       0.056033
     58 H18         -1.4080     0.7330     6.0670 ha         1 8RH       0.141000
     59 H19         -6.6610    -0.5660     3.5620 hn         1 8RH       0.315500
     60 H20         -8.5010    -0.2220     6.0010 h1         1 8RH       0.125700
     61 H21        -10.0790    -1.6090     4.7380 hc         1 8RH       0.077200
     62 H22         -8.8630    -1.7040     3.3090 hc         1 8RH       0.077200
     63 H23         -8.9240     0.7510     3.0940 hc         1 8RH       0.077200
     64 H24        -10.1400     0.8460     4.5230 hc         1 8RH       0.077200
@<TRIPOS>BOND
     1    40    38 1   
     2    40    39 1   
     3    38    39 1   
     4    38    37 1   
     5    37    35 1   
     6    14    13 1   
     7    35    36 2   
     8    35    31 1   
     9    13    12 1   
    10    11    10 1   
    11    33    32 1   
    12    31    32 ar  
    13    31    30 ar  
    14    12    10 ar  
    15    12    15 ar  
    16    10    18 ar  
    17    32    34 ar  
    18    30    29 ar  
    19    15    16 ar  
    20    18    19 1   
    21    18    17 ar  
    22    34    28 ar  
    23    29    28 ar  
    24    28     4 1   
    25    16    17 ar  
    26    17     9 1   
    27     4    21 1   
    28     4     5 2   
    29    20    21 1   
    30    20     1 2   
    31     9     1 1   
    32    21    23 1   
    33     1     3 1   
    34     5    22 1   
    35    23    22 2   
    36    23     2 1   
    37     3     2 2   
    38     2    24 1   
    39    24     6 1   
    40     6     7 1   
    41     7     8 1   
    42    27     8 1   
    43     8    26 1   
    44     8    25 1   
    45     3    41 1   
    46     5    42 1   
    47     6    43 1   
    48     6    44 1   
    49     7    45 1   
    50     7    46 1   
    51    14    47 1   
    52    14    48 1   
    53    14    49 1   
    54    15    50 1   
    55    16    51 1   
    56    24    52 1   
    57    29    53 1   
    58    30    54 1   
    59    33    55 1   
    60    33    56 1   
    61    33    57 1   
    62    34    58 1   
    63    37    59 1   
    64    38    60 1   
    65    39    61 1   
    66    39    62 1   
    67    40    63 1   
    68    40    64 1   
@<TRIPOS>SUBSTRUCTURE
     1 8RH         1 TEMP              0 ****  ****    0 ROOT
