@<TRIPOS>MOLECULE
8RH
   64    68     1     0     0
SMALL
bcc


@<TRIPOS>ATOM
      1 C1           0.0000     0.0000     0.0000 cc         1 8RH       0.749600
      2 C2           2.0880     0.0000     1.1960 cd         1 8RH       0.201600
      3 C3           1.4020     0.0000     0.0000 cc         1 8RH      -0.439300
      4 C8          -0.4590    -0.0190     3.6550 cc         1 8RH      -0.287300
      5 C9           0.6620    -0.0220     4.4620 cd         1 8RH       0.035600
      6 C11          4.2260     0.0000    -0.0480 c3         1 8RH       0.146800
      7 C12          5.7260    -0.0000     0.2490 c3         1 8RH      -0.100400
      8 C13          6.5070     0.0000    -1.0670 c3         1 8RH       0.577900
      9 O18         -0.6710    -0.0000    -1.1800 os         1 8RH      -0.293400
     10 C20         -4.1740    -0.2590    -2.1430 ca         1 8RH       0.061900
     11 F36         -4.9270    -0.7630    -3.1450 f          1 8RH      -0.105900
     12 C22         -4.7830     0.3830    -1.0710 ca         1 8RH       0.127100
     13 O37         -6.1360     0.5100    -1.0350 os         1 8RH      -0.289900
     14 C38         -6.6940     1.1820     0.0960 c3         1 8RH       0.244700
     15 C24         -4.0100     0.8940    -0.0400 ca         1 8RH      -0.182000
     16 C23         -2.6340     0.7660    -0.0770 ca         1 8RH      -0.106000
     17 C19         -2.0240     0.1250    -1.1450 ca         1 8RH       0.063100
     18 C21         -2.7960    -0.3880    -2.1790 ca         1 8RH       0.102900
     19 F35         -2.2030    -1.0170    -3.2180 f          1 8RH      -0.107900
     20 N5          -0.6720    -0.0060     1.1280 nd         1 8RH      -0.799800
     21 N6          -0.0100    -0.0120     2.3590 na         1 8RH       0.778200
     22 N7           1.7350    -0.0180     3.6800 nc         1 8RH      -0.217600
     23 C4           1.3560    -0.0130     2.4070 cd         1 8RH      -0.354300
     24 N10          3.4790    -0.0010     1.2120 nu         1 8RH      -0.345600
     25 F16          6.1770    -1.1420    -1.8060 f          1 8RH      -0.203967
     26 F15          6.1780     1.1430    -1.8050 f          1 8RH      -0.203967
     27 F14          7.8790     0.0010    -0.7960 f          1 8RH      -0.203967
     28 C17         -1.8640    -0.0210     4.1000 ca         1 8RH       0.032200
     29 C28         -2.8730    -0.4510     3.2310 ca         1 8RH      -0.131000
     30 C29         -4.1740    -0.4540     3.6430 ca         1 8RH      -0.077000
     31 C27         -4.4990    -0.0270     4.9350 ca         1 8RH      -0.170600
     32 C25         -3.4910     0.4040     5.8040 ca         1 8RH      -0.004300
     33 C30         -3.8420     0.8630     7.1950 c3         1 8RH       0.047200
     34 C26         -2.1890     0.4000     5.3940 ca         1 8RH      -0.114000
     35 C31         -5.9060    -0.0220     5.3770 c          1 8RH       0.599700
     36 O33         -6.1790     0.2440     6.5330 o          1 8RH      -0.650100
     37 N32         -6.8890    -0.3130     4.5030 ns         1 8RH      -0.146900
     38 C34         -8.2860    -0.3090     4.9430 cx         1 8RH      -0.045300
     39 C42         -9.2770    -1.1700     4.1570 cx         1 8RH      -0.094900
     40 C41         -9.3140     0.3540     4.0230 cx         1 8RH      -0.094900
     41 H1           1.9440    -0.0740    -0.9350 ha         1 8RH       0.154000
     42 H2           0.6660    -0.0330     5.5450 h4         1 8RH       0.150000
     43 H3           3.9700     0.8850    -0.6180 h1         1 8RH       0.039700
     44 H4           3.9700    -0.8840    -0.6200 h1         1 8RH       0.039700
     45 H5           5.9820     0.8840     0.8200 hc         1 8RH       0.058200
     46 H6           5.9820    -0.8850     0.8190 hc         1 8RH       0.058200
     47 H7          -6.4480     0.6360     0.9990 h1         1 8RH      -0.000967
     48 H8          -7.7700     1.2360    -0.0110 h1         1 8RH      -0.000967
     49 H9          -6.2860     2.1840     0.1580 h1         1 8RH      -0.000967
     50 H10         -4.4850     1.3940     0.7950 ha         1 8RH       0.131000
     51 H11         -2.0310     1.1660     0.7300 ha         1 8RH       0.170000
     52 H12          3.9700     0.0100     2.0840 hn         1 8RH       0.316800
     53 H13         -2.6210    -0.7820     2.2310 ha         1 8RH       0.136000
     54 H14         -4.9550    -0.7870     2.9700 ha         1 8RH       0.100000
     55 H15         -2.9450     1.1980     7.7020 hc         1 8RH       0.023033
     56 H16         -4.5510     1.6800     7.1380 hc         1 8RH       0.023033
     57 H17         -4.2820     0.0410     7.7470 hc         1 8RH       0.023033
     58 H18         -1.4080     0.7330     6.0670 ha         1 8RH       0.118000
     59 H19         -6.6610    -0.5660     3.5620 hn         1 8RH       0.173500
     60 H20         -8.5010    -0.2220     6.0010 h1         1 8RH       0.098700
     61 H21        -10.0790    -1.6090     4.7380 hc         1 8RH       0.047450
     62 H22         -8.8630    -1.7040     3.3090 hc         1 8RH       0.047450
     63 H23         -8.9240     0.7510     3.0940 hc         1 8RH       0.047450
     64 H24        -10.1400     0.8460     4.5230 hc         1 8RH       0.047450
@<TRIPOS>BOND
     1     1     3 1   
     2     1     9 1   
     3     1    20 2   
     4     2     3 2   
     5     2    23 1   
     6     2    24 1   
     7     3    41 1   
     8     4     5 2   
     9     4    21 1   
    10     4    28 1   
    11     5    22 1   
    12     5    42 1   
    13     6     7 1   
    14     6    24 1   
    15     6    43 1   
    16     6    44 1   
    17     7     8 1   
    18     7    45 1   
    19     7    46 1   
    20     8    25 1   
    21     8    26 1   
    22     8    27 1   
    23     9    17 1   
    24    10    11 1   
    25    10    12 ar  
    26    10    18 ar  
    27    12    13 1   
    28    12    15 ar  
    29    13    14 1   
    30    14    47 1   
    31    14    48 1   
    32    14    49 1   
    33    15    16 ar  
    34    15    50 1   
    35    16    17 ar  
    36    16    51 1   
    37    17    18 ar  
    38    18    19 1   
    39    20    21 1   
    40    21    23 1   
    41    22    23 2   
    42    24    52 1   
    43    28    29 ar  
    44    28    34 ar  
    45    29    30 ar  
    46    29    53 1   
    47    30    31 ar  
    48    30    54 1   
    49    31    32 ar  
    50    31    35 1   
    51    32    33 1   
    52    32    34 ar  
    53    33    55 1   
    54    33    56 1   
    55    33    57 1   
    56    34    58 1   
    57    35    36 2   
    58    35    37 1   
    59    37    38 1   
    60    37    59 1   
    61    38    39 1   
    62    38    40 1   
    63    38    60 1   
    64    39    40 1   
    65    39    61 1   
    66    39    62 1   
    67    40    63 1   
    68    40    64 1   
@<TRIPOS>SUBSTRUCTURE
     1 8RH         1 TEMP              0 ****  ****    0 ROOT
