@<TRIPOS>MOLECULE
8RK
   26    27     1     0     0
SMALL
bcc


@<TRIPOS>ATOM
      1 C4           0.0000     0.0000     0.0000 c          1 8RK       0.745600
      2 C5           2.2140     0.0010    -1.1810 c3         1 8RK       0.060000
      3 C6           2.5160    -1.4410    -1.5930 c3         1 8RK      -0.158400
      4 C7           3.4080    -1.4400    -2.8080 c          1 8RK       0.985600
      5 C8           1.7670     0.0000     1.3310 ca         1 8RK      -0.140400
      6 C10          3.1090    -0.0010     3.3150 ca         1 8RK      -0.029600
      7 Cl           4.6700     0.0030     4.0750 cl         1 8RK      -0.037400
      8 C1           1.9630    -0.0040     4.0910 ca         1 8RK      -0.102300
      9 C            2.0750    -0.0060     5.5940 c3         1 8RK       0.066200
     10 C9           3.0140    -0.0000     1.9350 ca         1 8RK      -0.072000
     11 C3           0.6120    -0.0050     2.1120 ca         1 8RK       0.049100
     12 C2           0.7170    -0.0070     3.4950 ca         1 8RK      -0.072000
     13 N            1.3480     0.0000     0.0000 n          1 8RK       0.025000
     14 O1          -0.7010     0.0010    -0.9930 o          1 8RK      -0.662500
     15 O           -0.4470    -0.0060     1.2660 os         1 8RK      -0.262200
     16 O3           3.7660    -0.3920    -3.2940 o          1 8RK      -0.896300
     17 O2           3.8060    -2.6020    -3.3500 o          1 8RK      -0.896300
     18 H1           3.1410     0.5120    -0.9480 h1         1 8RK       0.047200
     19 H2           1.7150     0.5120    -1.9950 h1         1 8RK       0.047200
     20 H3           3.0160    -1.9520    -0.7790 hc         1 8RK       0.017700
     21 H4           1.5900    -1.9510    -1.8250 hc         1 8RK       0.017700
     22 H5           2.6110     0.8780     5.9170 hc         1 8RK       0.007700
     23 H6           2.6100    -0.8910     5.9150 hc         1 8RK       0.007700
     24 H7           1.0830    -0.0050     6.0300 hc         1 8RK       0.007700
     25 H8           3.9090     0.0890     1.3310 ha         1 8RK       0.134000
     26 H9          -0.1780    -0.0090     4.1060 ha         1 8RK       0.111000
@<TRIPOS>BOND
     1     1    13 1   
     2     1    14 2   
     3     1    15 1   
     4     2     3 1   
     5     2    13 1   
     6     2    18 1   
     7     2    19 1   
     8     3     4 1   
     9     3    20 1   
    10     3    21 1   
    11     4    16 1   
    12     4    17 1   
    13     5    10 ar  
    14     5    11 ar  
    15     5    13 1   
    16     6     7 1   
    17     6     8 ar  
    18     6    10 ar  
    19     8     9 1   
    20     8    12 ar  
    21     9    22 1   
    22     9    23 1   
    23     9    24 1   
    24    10    25 1   
    25    11    12 ar  
    26    11    15 1   
    27    12    26 1   
@<TRIPOS>SUBSTRUCTURE
     1 8RK         1 TEMP              0 ****  ****    0 ROOT
