@<TRIPOS>MOLECULE
molecule
   24    25     1     0     0
SMALL
bcc


@<TRIPOS>ATOM
      1 N1           0.0000     0.0000     0.0000 ns         1 8RM      -0.585900
      2 C4          -2.8520     0.0000     2.3690 ca         1 8RM      -0.007000
      3 C5          -4.2560     0.0050     2.3120 ca         1 8RM      -0.169300
      4 C6          -5.0320     0.0050     3.4830 ca         1 8RM      -0.100000
      5 C7          -6.3900     0.0100     3.3910 ca         1 8RM      -0.129000
      6 C8          -7.0220     0.0140     2.1490 ca         1 8RM      -0.109000
      7 C10         -4.8960     0.0100     1.0480 ca         1 8RM       0.431600
      8 C1           1.4640     0.0000     0.0000 c3         1 8RM       0.104300
      9 C2          -0.6740     0.0000     1.1670 c          1 8RM       0.676700
     10 C3          -2.1520     0.0000     1.1670 ca         1 8RM      -0.284900
     11 C9          -6.3010     0.0150     0.9940 ca         1 8RM      -0.170300
     12 N2          -4.1680     0.0100    -0.0750 nb         1 8RM      -0.684000
     13 C11         -2.8610    -0.0010    -0.0460 ca         1 8RM       0.448200
     14 O1          -0.0660     0.0010     2.2190 o          1 8RM      -0.606100
     15 H1          -0.5000     0.0010    -0.8670 hn         1 8RM       0.313500
     16 H3          -4.5530     0.0020     4.4550 ha         1 8RM       0.139000
     17 H4          -6.9880     0.0090     4.2950 ha         1 8RM       0.134000
     18 H5          -8.1040     0.0180     2.1020 ha         1 8RM       0.135000
     19 H6           1.8250    -0.8840     0.5110 h1         1 8RM       0.043367
     20 H7           1.8250    -0.0000    -1.0210 h1         1 8RM       0.043367
     21 H8           1.8250     0.8850     0.5110 h1         1 8RM       0.043367
     22 H9          -6.8080     0.0180     0.0370 ha         1 8RM       0.151000
     23 H10         -2.3110    -0.0010    -0.9800 h4         1 8RM       0.016100
     24 H2          -2.3480    -0.2690     3.2890 ha         1 8RM       0.166000
@<TRIPOS>BOND
     1     6     5 ar  
     2     6    11 ar  
     3     5     4 ar  
     4    11     7 ar  
     5     4     3 ar  
     6     7     3 ar  
     7     7    12 ar  
     8     3     2 ar  
     9    12    13 ar  
    10     2    10 ar  
    11    13    10 ar  
    12    10     9 1   
    13     1     9 1   
    14     1     8 1   
    15     9    14 2   
    16     1    15 1   
    17     2    24 1   
    18     4    16 1   
    19     5    17 1   
    20     6    18 1   
    21     8    19 1   
    22     8    20 1   
    23     8    21 1   
    24    11    22 1   
    25    13    23 1   
@<TRIPOS>SUBSTRUCTURE
     1 8RM         1 TEMP              0 ****  ****    0 ROOT
