@<TRIPOS>MOLECULE
8RN
   54    57     1     0     0
SMALL
bcc


@<TRIPOS>ATOM
      1 N            0.0000     0.0000     0.0000 nc         1 8RN      -0.508100
      2 C           -0.0200     0.0010     2.3700 cd         1 8RN      -0.125700
      3 O            2.0360     0.0020     3.3810 o          1 8RN      -0.675500
      4 O2           5.3390     4.9960    -1.8870 o          1 8RN      -0.646100
      5 C13          7.4620     4.3500    -1.0830 c3         1 8RN      -0.101400
      6 C14          7.9580     5.2160    -2.2420 c3         1 8RN       0.022600
      7 C21          7.5660     6.6750    -1.9920 c3         1 8RN      -0.000100
      8 C15          9.4580     5.1110    -2.3430 ca         1 8RN      -0.089300
      9 C20         10.0410     4.6310    -3.5010 ca         1 8RN      -0.099500
     10 C19         11.4160     4.5340    -3.5930 ca         1 8RN      -0.099000
     11 C18         12.2100     4.9160    -2.5280 ca         1 8RN      -0.105000
     12 C17         11.6260     5.3950    -1.3690 ca         1 8RN      -0.099000
     13 C16         10.2510     5.4980    -1.2790 ca         1 8RN      -0.099500
     14 N2           5.2930     3.6580    -0.1160 n          1 8RN      -0.159800
     15 C9           6.0260     2.8860     0.8970 c3         1 8RN       0.053500
     16 C8           5.5140     1.4420     0.8830 c3         1 8RN      -0.062900
     17 C10          3.8240     3.6560    -0.0790 c3         1 8RN       0.053500
     18 C11          3.3320     2.2060    -0.0850 c3         1 8RN      -0.062900
     19 C7           3.9950     1.4420     1.0690 c3         1 8RN       0.148800
     20 O1           3.6670     2.0800     2.3040 oh         1 8RN      -0.573800
     21 C6           3.4850    -0.0000     1.0910 c3         1 8RN      -0.008000
     22 N1           2.0210     0.0000     1.1490 n          1 8RN       0.052700
     23 C2           1.2960     0.0000     0.0000 cd         1 8RN       0.329800
     24 C3           1.3950     0.0010     2.3440 c          1 8RN       0.659100
     25 S           -1.1570     0.0010     3.7120 ss         1 8RN      -0.164800
     26 C4          -2.5230     0.0010     2.6100 cd         1 8RN       0.045900
     27 C5          -2.1060     0.0000     1.3500 cc         1 8RN       0.007100
     28 C1          -0.7200     0.0010     1.1670 cc         1 8RN       0.160400
     29 Br          -3.3120     0.0000    -0.1080 br         1 8RN      -0.076100
     30 H1           7.8400     4.7460    -0.1480 hc         1 8RN       0.034200
     31 H2           7.8160     3.3350    -1.2140 hc         1 8RN       0.034200
     32 H3           7.5090     4.8750    -3.1670 hc         1 8RN       0.046700
     33 H4           7.2820     6.7990    -0.9540 hc         1 8RN       0.011367
     34 H5           6.7300     6.9380    -2.6290 hc         1 8RN       0.011367
     35 H6           8.4080     7.3190    -2.2160 hc         1 8RN       0.011367
     36 H7           9.4190     4.3320    -4.3370 ha         1 8RN       0.107000
     37 H8          11.8730     4.1590    -4.5000 ha         1 8RN       0.101500
     38 H9          13.2880     4.8380    -2.5990 ha         1 8RN       0.102000
     39 H10         12.2480     5.6970    -0.5340 ha         1 8RN       0.101500
     40 H11          9.7940     5.8730    -0.3710 ha         1 8RN       0.107000
     41 H12          5.8570     3.3210     1.8750 h1         1 8RN       0.039200
     42 H13          7.0840     2.8980     0.6660 h1         1 8RN       0.039200
     43 H14          5.7610     0.9820    -0.0660 hc         1 8RN       0.030950
     44 H15          5.9770     0.8890     1.6910 hc         1 8RN       0.030950
     45 H16          3.4840     4.1500     0.8230 h1         1 8RN       0.039200
     46 H17          3.4390     4.1730    -0.9500 h1         1 8RN       0.039200
     47 H18          3.5970     1.7390    -1.0260 hc         1 8RN       0.030950
     48 H19          2.2560     2.1900     0.0420 hc         1 8RN       0.030950
     49 H20          4.1600     1.6840     3.0040 ho         1 8RN       0.409000
     50 H21          3.8110    -0.5110     0.1930 h1         1 8RN       0.049200
     51 H22          3.8810    -0.5100     1.9600 h1         1 8RN       0.049200
     52 H23          1.8200    -0.0020    -0.9490 h5         1 8RN       0.014800
     53 H24         -3.5630     0.0010     2.9160 h4         1 8RN       0.163000
     54 C12          5.9550     4.3580    -1.0580 c          1 8RN       0.588100
@<TRIPOS>BOND
     1     1    23 2   
     2     1    28 1   
     3     2    24 1   
     4     2    25 1   
     5     2    28 2   
     6     3    24 2   
     7     4    54 2   
     8     5     6 1   
     9     5    30 1   
    10     5    31 1   
    11     5    54 1   
    12     6     7 1   
    13     6     8 1   
    14     6    32 1   
    15     7    33 1   
    16     7    34 1   
    17     7    35 1   
    18     8     9 ar  
    19     8    13 ar  
    20     9    10 ar  
    21     9    36 1   
    22    10    11 ar  
    23    10    37 1   
    24    11    12 ar  
    25    11    38 1   
    26    12    13 ar  
    27    12    39 1   
    28    13    40 1   
    29    14    15 1   
    30    14    17 1   
    31    14    54 1   
    32    15    16 1   
    33    15    41 1   
    34    15    42 1   
    35    16    19 1   
    36    16    43 1   
    37    16    44 1   
    38    17    18 1   
    39    17    45 1   
    40    17    46 1   
    41    18    19 1   
    42    18    47 1   
    43    18    48 1   
    44    19    20 1   
    45    19    21 1   
    46    20    49 1   
    47    21    22 1   
    48    21    50 1   
    49    21    51 1   
    50    22    23 1   
    51    22    24 1   
    52    23    52 1   
    53    25    26 1   
    54    26    27 2   
    55    26    53 1   
    56    27    28 1   
    57    27    29 1   
@<TRIPOS>SUBSTRUCTURE
     1 8RN         1 TEMP              0 ****  ****    0 ROOT
