@<TRIPOS>MOLECULE
molecule
   54    57     1     0     0
SMALL
bcc


@<TRIPOS>ATOM
      1 N            0.0000     0.0000     0.0000 nc         1 8RN      -0.619100
      2 C           -0.0200     0.0010     2.3700 cc         1 8RN      -0.176700
      3 O            2.0360     0.0020     3.3810 o          1 8RN      -0.638500
      4 O2           5.3390     4.9960    -1.8870 o          1 8RN      -0.609100
      5 C13          7.4620     4.3500    -1.0830 c3         1 8RN      -0.150400
      6 C14          7.9580     5.2160    -2.2420 c3         1 8RN      -0.012400
      7 C21          7.5660     6.6750    -1.9920 c3         1 8RN      -0.082100
      8 C15          9.4580     5.1110    -2.3430 ca         1 8RN      -0.082300
      9 C20         10.0410     4.6310    -3.5010 ca         1 8RN      -0.125500
     10 C19         11.4160     4.5340    -3.5930 ca         1 8RN      -0.126500
     11 C18         12.2100     4.9160    -2.5280 ca         1 8RN      -0.131000
     12 C17         11.6260     5.3950    -1.3690 ca         1 8RN      -0.126500
     13 C16         10.2510     5.4980    -1.2790 ca         1 8RN      -0.125500
     14 N2           5.2930     3.6580    -0.1160 n          1 8RN      -0.494800
     15 C9           6.0260     2.8860     0.8970 c3         1 8RN       0.110500
     16 C8           5.5140     1.4420     0.8830 c3         1 8RN      -0.108900
     17 C10          3.8240     3.6560    -0.0790 c3         1 8RN       0.110500
     18 C11          3.3320     2.2060    -0.0850 c3         1 8RN      -0.108900
     19 C7           3.9950     1.4420     1.0690 c3         1 8RN       0.134800
     20 O1           3.6670     2.0800     2.3040 oh         1 8RN      -0.585800
     21 C6           3.4850    -0.0000     1.0910 c3         1 8RN       0.066000
     22 N1           2.0210     0.0000     1.1490 n          1 8RN      -0.365300
     23 C2           1.2960     0.0000     0.0000 cd         1 8RN       0.501800
     24 C3           1.3950     0.0010     2.3440 c          1 8RN       0.741100
     25 S           -1.1570     0.0010     3.7120 ss         1 8RN      -0.012800
     26 C4          -2.5230     0.0010     2.6100 cc         1 8RN      -0.040100
     27 C5          -2.1060     0.0000     1.3500 cd         1 8RN      -0.030900
     28 C1          -0.7200     0.0010     1.1670 cd         1 8RN       0.198400
     29 Br          -3.3120     0.0000    -0.1080 br         1 8RN      -0.054100
     30 H1           7.8400     4.7460    -0.1480 hc         1 8RN       0.062200
     31 H2           7.8160     3.3350    -1.2140 hc         1 8RN       0.062200
     32 H3           7.5090     4.8750    -3.1670 hc         1 8RN       0.072700
     33 H4           7.2820     6.7990    -0.9540 hc         1 8RN       0.041700
     34 H5           6.7300     6.9380    -2.6290 hc         1 8RN       0.041700
     35 H6           8.4080     7.3190    -2.2160 hc         1 8RN       0.041700
     36 H7           9.4190     4.3320    -4.3370 ha         1 8RN       0.130500
     37 H8          11.8730     4.1590    -4.5000 ha         1 8RN       0.129000
     38 H9          13.2880     4.8380    -2.5990 ha         1 8RN       0.129000
     39 H10         12.2480     5.6970    -0.5340 ha         1 8RN       0.129000
     40 H11          9.7940     5.8730    -0.3710 ha         1 8RN       0.130500
     41 H12          5.8570     3.3210     1.8750 h1         1 8RN       0.065950
     42 H13          7.0840     2.8980     0.6660 h1         1 8RN       0.065950
     43 H14          5.7610     0.9820    -0.0660 hc         1 8RN       0.057700
     44 H15          5.9770     0.8890     1.6910 hc         1 8RN       0.057700
     45 H16          3.4840     4.1500     0.8230 h1         1 8RN       0.065950
     46 H17          3.4390     4.1730    -0.9500 h1         1 8RN       0.065950
     47 H18          3.5970     1.7390    -1.0260 hc         1 8RN       0.057700
     48 H19          2.2560     2.1900     0.0420 hc         1 8RN       0.057700
     49 H20          4.1600     1.6840     3.0040 ho         1 8RN       0.415000
     50 H21          3.8110    -0.5110     0.1930 h1         1 8RN       0.074200
     51 H22          3.8810    -0.5100     1.9600 h1         1 8RN       0.074200
     52 H23          1.8200    -0.0020    -0.9490 h5         1 8RN       0.063800
     53 H24         -3.5630     0.0010     2.9160 h4         1 8RN       0.190000
     54 C12          5.9550     4.3580    -1.0580 c          1 8RN       0.661100
@<TRIPOS>BOND
     1     7     6 1
     2     6     5 1
     3     6     8 1
     4     5    54 1
     5    13     8 ar
     6    13    12 ar
     7     8     9 ar
     8    12    11 ar
     9     9    10 ar
    10    54     4 2
    11    54    14 1
    12    11    10 ar
    13    15    14 1
    14    15    16 1
    15    14    17 1
    16    16    19 1
    17     3    24 2
    18    25    26 1
    19    25     2 1
    20    17    18 1
    21    24     2 1
    22    24    22 1
    23    19    18 1
    24    19    21 1
    25    19    20 1
    26    26    27 2
    27     2    28 2
    28    21    22 1
    29    22    23 1
    30    27    28 1
    31    27    29 1
    32    28     1 1
    33    23     1 2
    34     5    30 1
    35     5    31 1
    36     6    32 1
    37     7    33 1
    38     7    34 1
    39     7    35 1
    40     9    36 1
    41    10    37 1
    42    11    38 1
    43    12    39 1
    44    13    40 1
    45    15    41 1
    46    15    42 1
    47    16    43 1
    48    16    44 1
    49    17    45 1
    50    17    46 1
    51    18    47 1
    52    18    48 1
    53    20    49 1
    54    21    50 1
    55    21    51 1
    56    23    52 1
    57    26    53 1
@<TRIPOS>SUBSTRUCTURE
     1 8RN         1 TEMP              0 ****  ****    0 ROOT
