@<TRIPOS>MOLECULE
molecule
   34    35     1     0     0
SMALL
bcc


@<TRIPOS>ATOM
      1 N1           0.0000     0.0000     0.0000 n          1 8RP      -0.497800
      2 C4           1.9420     0.0000     1.4540 c3         1 8RP      -0.053100
      3 C5           1.2010    -1.0380     2.2560 ca         1 8RP      -0.061300
      4 C6           1.7760    -1.4570     3.4510 ca         1 8RP      -0.193000
      5 C7           1.1480    -2.4010     4.2410 ca         1 8RP       0.124100
      6 C8          -0.0710    -2.9360     3.8380 ca         1 8RP       0.119100
      7 C10          0.0020    -1.5690     1.8590 ca         1 8RP      -0.103300
      8 C13          2.9720    -2.2120     5.7560 c3         1 8RP       0.126700
      9 C1          -2.2030     0.9520    -0.5980 c3         1 8RP      -0.171100
     10 C2          -0.7010     1.0380    -0.4960 c          1 8RP       0.666100
     11 C3           1.4730     0.0000     0.0000 c3         1 8RP       0.107000
     12 C9          -0.6390    -2.5180     2.6490 ca         1 8RP      -0.191000
     13 C11         -0.6720    -1.1730     0.5680 c3         1 8RP       0.156300
     14 O1          -0.7010    -3.8630     4.6090 os         1 8RP      -0.311900
     15 C12         -1.9490    -4.3660     4.1290 c3         1 8RP       0.127700
     16 O2           1.7200    -2.8060     5.4070 os         1 8RP      -0.312900
     17 O3          -0.1250     2.0400    -0.8630 o          1 8RP      -0.610100
     18 H1           1.7390     0.9750     1.8810 hc         1 8RP       0.061200
     19 H2           2.9990    -0.2390     1.4750 hc         1 8RP       0.061200
     20 H3           2.7250    -1.0400     3.7650 ha         1 8RP       0.142000
     21 H4           3.3140    -2.6190     6.7000 h1         1 8RP       0.041033
     22 H5           2.8510    -1.1390     5.8470 h1         1 8RP       0.041033
     23 H6           3.7020    -2.4280     4.9840 h1         1 8RP       0.041033
     24 H7          -2.5730     1.7830    -1.1860 hc         1 8RP       0.060367
     25 H8          -2.4800     0.0200    -1.0770 hc         1 8RP       0.060367
     26 H9          -2.6350     0.9910     0.3940 hc         1 8RP       0.060367
     27 H10          1.8270    -0.9010    -0.4870 h1         1 8RP       0.066700
     28 H11          1.8270     0.9010    -0.4870 h1         1 8RP       0.066700
     29 H12         -1.5890    -2.9320     2.3300 ha         1 8RP       0.139000
     30 H13         -0.5900    -1.9950    -0.1330 h1         1 8RP       0.056700
     31 H14         -1.7030    -0.9160     0.7780 h1         1 8RP       0.056700
     32 H15         -2.6520    -3.5480     4.0260 h1         1 8RP       0.040367
     33 H16         -1.8010    -4.8390     3.1660 h1         1 8RP       0.040367
     34 H17         -2.3400    -5.0910     4.8320 h1         1 8RP       0.040367
@<TRIPOS>BOND
     1    15    14 1
     2    14     6 1
     3    16     8 1
     4    16     5 1
     5     6     5 ar
     6     6    12 ar
     7     5     4 ar
     8    12     7 ar
     9     4     3 ar
    10     7     3 ar
    11     7    13 1
    12     3     2 1
    13    13     1 1
    14    11     2 1
    15    11     1 1
    16     1    10 1
    17    10     9 1
    18    10    17 2
    19     2    18 1
    20     2    19 1
    21     4    20 1
    22     8    21 1
    23     8    22 1
    24     8    23 1
    25     9    24 1
    26     9    25 1
    27     9    26 1
    28    11    27 1
    29    11    28 1
    30    12    29 1
    31    13    30 1
    32    13    31 1
    33    15    32 1
    34    15    33 1
    35    15    34 1
@<TRIPOS>SUBSTRUCTURE
     1 8RP         1 TEMP              0 ****  ****    0 ROOT
