@<TRIPOS>MOLECULE
8RP
   34    35     1     0     0
SMALL
bcc


@<TRIPOS>ATOM
      1 N1           0.0000     0.0000     0.0000 n          1 8RP      -0.166800
      2 C4           1.9420     0.0000     1.4540 c3         1 8RP       0.016900
      3 C5           1.2010    -1.0380     2.2560 ca         1 8RP      -0.067300
      4 C6           1.7760    -1.4570     3.4510 ca         1 8RP      -0.182000
      5 C7           1.1480    -2.4010     4.2410 ca         1 8RP       0.127100
      6 C8          -0.0710    -2.9360     3.8380 ca         1 8RP       0.121100
      7 C10          0.0020    -1.5690     1.8590 ca         1 8RP      -0.108300
      8 C13          2.9720    -2.2120     5.7560 c3         1 8RP       0.241700
      9 C1          -2.2030     0.9520    -0.5980 c3         1 8RP      -0.073100
     10 C2          -0.7010     1.0380    -0.4960 c          1 8RP       0.593100
     11 C3           1.4730     0.0000     0.0000 c3         1 8RP       0.052000
     12 C9          -0.6390    -2.5180     2.6490 ca         1 8RP      -0.176000
     13 C11         -0.6720    -1.1730     0.5680 c3         1 8RP       0.114300
     14 O1          -0.7010    -3.8630     4.6090 os         1 8RP      -0.291900
     15 C12         -1.9490    -4.3660     4.1290 c3         1 8RP       0.241700
     16 O2           1.7200    -2.8060     5.4070 os         1 8RP      -0.292900
     17 O3          -0.1250     2.0400    -0.8630 o          1 8RP      -0.649100
     18 H1           1.7390     0.9750     1.8810 hc         1 8RP       0.030200
     19 H2           2.9990    -0.2390     1.4750 hc         1 8RP       0.030200
     20 H3           2.7250    -1.0400     3.7650 ha         1 8RP       0.126000
     21 H4           3.3140    -2.6190     6.7000 h1         1 8RP      -0.002300
     22 H5           2.8510    -1.1390     5.8470 h1         1 8RP      -0.002300
     23 H6           3.7020    -2.4280     4.9840 h1         1 8RP      -0.002300
     24 H7          -2.5730     1.7830    -1.1860 hc         1 8RP       0.024033
     25 H8          -2.4800     0.0200    -1.0770 hc         1 8RP       0.024033
     26 H9          -2.6350     0.9910     0.3940 hc         1 8RP       0.024033
     27 H10          1.8270    -0.9010    -0.4870 h1         1 8RP       0.038200
     28 H11          1.8270     0.9010    -0.4870 h1         1 8RP       0.038200
     29 H12         -1.5890    -2.9320     2.3300 ha         1 8RP       0.123000
     30 H13         -0.5900    -1.9950    -0.1330 h1         1 8RP       0.027700
     31 H14         -1.7030    -0.9160     0.7780 h1         1 8RP       0.027700
     32 H15         -2.6520    -3.5480     4.0260 h1         1 8RP      -0.003300
     33 H16         -1.8010    -4.8390     3.1660 h1         1 8RP      -0.003300
     34 H17         -2.3400    -5.0910     4.8320 h1         1 8RP      -0.003300
@<TRIPOS>BOND
     1     1    10 1   
     2     1    11 1   
     3     1    13 1   
     4     2     3 1   
     5     2    11 1   
     6     2    18 1   
     7     2    19 1   
     8     3     4 ar  
     9     3     7 ar  
    10     4     5 ar  
    11     4    20 1   
    12     5     6 ar  
    13     5    16 1   
    14     6    12 ar  
    15     6    14 1   
    16     7    12 ar  
    17     7    13 1   
    18     8    16 1   
    19     8    21 1   
    20     8    22 1   
    21     8    23 1   
    22     9    10 1   
    23     9    24 1   
    24     9    25 1   
    25     9    26 1   
    26    10    17 2   
    27    11    27 1   
    28    11    28 1   
    29    12    29 1   
    30    13    30 1   
    31    13    31 1   
    32    14    15 1   
    33    15    32 1   
    34    15    33 1   
    35    15    34 1   
@<TRIPOS>SUBSTRUCTURE
     1 8RP         1 TEMP              0 ****  ****    0 ROOT
