@<TRIPOS>MOLECULE
molecule
   90    93     1     0     0
SMALL
bcc


@<TRIPOS>ATOM
      1 CBJ          0.0000     0.0000     0.0000 c3         1 8RQ      -0.078400
      2 CBK          1.5300     0.0000     0.0000 c3         1 8RQ      -0.077900
      3 CBL          2.0400     0.0000     1.4430 c3         1 8RQ      -0.080400
      4 CBM          1.5290    -1.2510     2.1630 c3         1 8RQ      -0.077900
      5 CBN         -0.0000    -1.2510     2.1630 c3         1 8RQ      -0.078400
      6 CBO         -0.5100    -1.2500     0.7200 c3         1 8RQ      -0.092700
      7 CBP         -2.0400    -1.2500     0.7200 c3         1 8RQ       0.231800
      8 NBQ         -2.5280    -1.4250    -0.6510 n3         1 8RQ      -0.811500
      9 CBA         -2.2410    -2.6620    -1.3790 c3         1 8RQ       0.237800
     10 CBB         -3.2910    -3.7170    -1.0270 c3         1 8RQ      -0.096400
     11 CBC         -2.9910    -5.0100    -1.7870 c3         1 8RQ      -0.020200
     12 CBD         -4.0270    -6.0490    -1.4410 ce         1 8RQ      -0.220800
     13 CBE         -5.1100    -6.2030    -2.2190 c2         1 8RQ       0.083900
     14 CBF         -5.2440    -5.4050    -3.4910 c3         1 8RQ      -0.085900
     15 OBG         -6.0790    -7.0740    -1.8640 oh         1 8RQ      -0.511100
     16 CBH         -3.8580    -6.8630    -0.2920 ce         1 8RQ       0.476500
     17 NBI         -2.8700    -6.6400     0.5220 n2         1 8RQ      -0.621900
     18 CBR         -2.6950    -7.4810     1.7080 c3         1 8RQ       0.098100
     19 SAG         -3.4040    -0.2210    -1.3760 sy         1 8RQ       1.417200
     20 OAI         -4.2350    -0.8550    -2.3400 o          1 8RQ      -0.632300
     21 OAJ         -3.9110     0.5950    -0.3290 o          1 8RQ      -0.632300
     22 CAF         -2.2690     0.7780    -2.2800 ca         1 8RQ      -0.264500
     23 CAE         -1.9180     0.4320    -3.5720 ca         1 8RQ      -0.051000
     24 CAD         -1.0280     1.2150    -4.2810 ca         1 8RQ      -0.053500
     25 CAA         -1.7340     1.9130    -1.7000 ca         1 8RQ      -0.051000
     26 CAB         -0.8430     2.6970    -2.4090 ca         1 8RQ      -0.053500
     27 CAC         -0.4880     2.3470    -3.6980 ca         1 8RQ      -0.263500
     28 SAH          0.6470     3.3460    -4.6020 sy         1 8RQ       1.418200
     29 OAK          1.5030     3.9510    -3.6420 o          1 8RQ      -0.633800
     30 OAL          1.1250     2.5440    -5.6730 o          1 8RQ      -0.633800
     31 NAO         -0.2230     4.5760    -5.2910 n3         1 8RQ      -0.802500
     32 CAP         -0.5650     5.7620    -4.5030 c3         1 8RQ       0.236500
     33 CAV         -2.0910     5.8620    -4.3360 c3         1 8RQ      -0.103900
     34 CAW         -2.5190     7.1950    -4.9850 c3         1 8RQ      -0.089900
     35 CAX         -1.3910     7.5030    -5.9990 c3         1 8RQ      -0.089900
     36 CAY         -0.1170     7.0370    -5.2470 c3         1 8RQ      -0.103900
     37 CAN         -0.6510     4.4760    -6.6890 c3         1 8RQ       0.270100
     38 CAM         -2.0170     3.8450    -6.7520 ca         1 8RQ      -0.120300
     39 CAQ         -2.1420     2.4680    -6.7890 ca         1 8RQ      -0.117000
     40 CAR         -3.3940     1.8880    -6.8470 ca         1 8RQ      -0.123500
     41 CAS         -4.5250     2.6860    -6.8680 ca         1 8RQ       0.037400
     42 Cl1         -6.1000     1.9570    -6.9400 cl         1 8RQ      -0.102400
     43 CAT         -4.4010     4.0630    -6.8310 ca         1 8RQ      -0.123500
     44 CAU         -3.1470     4.6420    -6.7670 ca         1 8RQ      -0.117000
     45 H1          -0.3600    -0.0010    -1.0220 hc         1 8RQ       0.042450
     46 H2          -0.3600     0.8830     0.5140 hc         1 8RQ       0.042450
     47 H3           1.8890     0.8860    -0.5090 hc         1 8RQ       0.042950
     48 H4           1.8900    -0.8860    -0.5090 hc         1 8RQ       0.042950
     49 H5           3.1230    -0.0020     1.4420 hc         1 8RQ       0.041700
     50 H6           1.6750     0.8830     1.9540 hc         1 8RQ       0.041700
     51 H7           1.8890    -1.2490     3.1850 hc         1 8RQ       0.042950
     52 H8           1.8890    -2.1340     1.6500 hc         1 8RQ       0.042950
     53 H9          -0.3600    -0.3650     2.6730 hc         1 8RQ       0.042450
     54 H10         -0.3600    -2.1370     2.6720 hc         1 8RQ       0.042450
     55 H11         -0.1440    -2.1320     0.2090 hc         1 8RQ       0.059700
     56 H12         -2.4010    -2.0620     1.3380 h1         1 8RQ       0.066200
     57 H13         -2.4010    -0.3080     1.1140 h1         1 8RQ       0.066200
     58 H14         -2.2670    -2.4680    -2.4450 h1         1 8RQ       0.050700
     59 H15         -1.2580    -3.0250    -1.1020 h1         1 8RQ       0.050700
     60 H16         -4.2740    -3.3550    -1.3050 hc         1 8RQ       0.061200
     61 H17         -3.2660    -3.9100     0.0390 hc         1 8RQ       0.061200
     62 H18         -3.0160    -4.8170    -2.8520 hc         1 8RQ       0.052200
     63 H19         -2.0090    -5.3730    -1.5080 hc         1 8RQ       0.052200
     64 H20         -6.1290    -5.7250    -4.0270 hc         1 8RQ       0.056367
     65 H21         -4.3690    -5.5640    -4.1110 hc         1 8RQ       0.056367
     66 H22         -5.3290    -4.3520    -3.2500 hc         1 8RQ       0.056367
     67 H23         -6.1910    -7.7160    -2.5450 ho         1 8RQ       0.420000
     68 H24         -4.5510    -7.6710    -0.0940 h4         1 8RQ      -0.018200
     69 H25         -1.7880    -7.1920     2.2250 h1         1 8RQ       0.040367
     70 H26         -2.6250    -8.5190     1.4070 h1         1 8RQ       0.040367
     71 H27         -3.5440    -7.3530     2.3700 h1         1 8RQ       0.040367
     72 H28         -2.3420    -0.4550    -4.0280 ha         1 8RQ       0.154500
     73 H29         -0.7520     0.9410    -5.2920 ha         1 8RQ       0.153000
     74 H30         -2.0120     2.1870    -0.6900 ha         1 8RQ       0.154500
     75 H31         -0.4220     3.5850    -1.9540 ha         1 8RQ       0.153000
     76 H32         -0.0900     5.7170    -3.5300 h1         1 8RQ       0.079700
     77 H33         -2.3480     5.8640    -3.2840 hc         1 8RQ       0.059700
     78 H34         -2.5730     5.0330    -4.8400 hc         1 8RQ       0.059700
     79 H35         -3.4660     7.0780    -5.4970 hc         1 8RQ       0.048200
     80 H36         -2.5790     7.9770    -4.2370 hc         1 8RQ       0.048200
     81 H37         -1.5280     6.9300    -6.9090 hc         1 8RQ       0.048200
     82 H38         -1.3440     8.5640    -6.2090 hc         1 8RQ       0.048200
     83 H39          0.6740     6.8060    -5.9500 hc         1 8RQ       0.059700
     84 H40          0.2020     7.7940    -4.5410 hc         1 8RQ       0.059700
     85 H41         -0.6910     5.4670    -7.1260 h1         1 8RQ       0.077700
     86 H42          0.0550     3.8670    -7.2400 h1         1 8RQ       0.077700
     87 H43         -1.2570     1.8440    -6.7730 ha         1 8RQ       0.148000
     88 H44         -3.4910     0.8100    -6.8760 ha         1 8RQ       0.146500
     89 H45         -5.2860     4.6870    -6.8450 ha         1 8RQ       0.146500
     90 H46         -3.0500     5.7200    -6.7390 ha         1 8RQ       0.148000
@<TRIPOS>BOND
     1    14    13 1   
     2    15    13 1   
     3    13    12 2   
     4    21    19 2   
     5    12    11 1   
     6    12    16 1   
     7    10    11 1   
     8    10     9 1   
     9    16    17 2   
    10    35    34 1   
    11    35    36 1   
    12    20    19 2   
    13    17    18 1   
    14    19     8 1   
    15    19    22 1   
    16     9     8 1   
    17    34    33 1   
    18    36    32 1   
    19     8     7 1   
    20     7     6 1   
    21    25    22 ar  
    22    25    26 ar  
    23    22    23 ar  
    24    26    27 ar  
    25    33    32 1   
    26    23    24 ar  
    27    32    31 1   
    28     5     6 1   
    29     5     4 1   
    30     6     1 1   
    31    37    31 1   
    32    37    38 1   
    33    27    24 ar  
    34    27    28 1   
    35    31    28 1   
    36    39    38 ar  
    37    39    40 ar  
    38    38    44 ar  
    39     4     3 1   
    40     1     2 1   
    41    28    30 2   
    42    28    29 2   
    43    40    41 ar  
    44     3     2 1   
    45    44    43 ar  
    46    41    43 ar  
    47    41    42 1   
    48     1    45 1   
    49     1    46 1   
    50     2    47 1   
    51     2    48 1   
    52     3    49 1   
    53     3    50 1   
    54     4    51 1   
    55     4    52 1   
    56     5    53 1   
    57     5    54 1   
    58     6    55 1   
    59     7    56 1   
    60     7    57 1   
    61     9    58 1   
    62     9    59 1   
    63    10    60 1   
    64    10    61 1   
    65    11    62 1   
    66    11    63 1   
    67    14    64 1   
    68    14    65 1   
    69    14    66 1   
    70    15    67 1   
    71    16    68 1   
    72    18    69 1   
    73    18    70 1   
    74    18    71 1   
    75    23    72 1   
    76    24    73 1   
    77    25    74 1   
    78    26    75 1   
    79    32    76 1   
    80    33    77 1   
    81    33    78 1   
    82    34    79 1   
    83    34    80 1   
    84    35    81 1   
    85    35    82 1   
    86    36    83 1   
    87    36    84 1   
    88    37    85 1   
    89    37    86 1   
    90    39    87 1   
    91    40    88 1   
    92    43    89 1   
    93    44    90 1   
@<TRIPOS>SUBSTRUCTURE
     1 8RQ         1 TEMP              0 ****  ****    0 ROOT
