@<TRIPOS>MOLECULE
8RQ
   90    94     1     0     0
SMALL
bcc


@<TRIPOS>ATOM
      1 CBJ          0.0000     0.0000     0.0000 c3         1 8RQ      -0.110500
      2 CBK          1.5300     0.0000     0.0000 c3         1 8RQ      -0.101000
      3 CBL          2.0400     0.0000     1.4430 c3         1 8RQ      -0.103000
      4 CBM          1.5290    -1.2510     2.1630 c3         1 8RQ      -0.101000
      5 CBN         -0.0000    -1.2510     2.1630 c3         1 8RQ      -0.110500
      6 CBO         -0.5100    -1.2500     0.7200 c3         1 8RQ      -0.120000
      7 CBP         -2.0400    -1.2500     0.7200 c3         1 8RQ      -0.013000
      8 NBQ         -2.5280    -1.4250    -0.6510 n3         1 8RQ      -0.538000
      9 CBA         -2.2410    -2.6620    -1.3790 c3         1 8RQ      -0.003000
     10 CBB         -3.2910    -3.7170    -1.0270 c3         1 8RQ      -0.133000
     11 CBC         -2.9910    -5.0100    -1.7870 c3         1 8RQ      -0.063000
     12 CBD         -4.0270    -6.0490    -1.4410 c3         1 8RQ      -0.299000
     13 CBE         -5.1100    -6.2030    -2.2190 c2         1 8RQ       0.154000
     14 CBF         -5.2440    -5.4050    -3.4910 c3         1 8RQ      -0.120000
     15 OBG         -6.0790    -7.0740    -1.8640 oh         1 8RQ      -0.213000
     16 CBH         -3.8580    -6.8630    -0.2920 c2         1 8RQ      -0.333000
     17 NBI         -2.8700    -6.6400     0.5220 n2         1 8RQ      -0.076000
     18 CBR         -2.6950    -7.4810     1.7080 c3         1 8RQ      -0.039000
     19 SAG         -3.4040    -0.2210    -1.3760 s6         1 8RQ       2.387000
     20 OAI         -4.2350    -0.8550    -2.3400 o          1 8RQ      -0.865000
     21 OAJ         -3.9110     0.5950    -0.3290 o          1 8RQ      -0.865000
     22 CAF         -2.2690     0.7780    -2.2800 ca         1 8RQ      -0.558000
     23 CAE         -1.9180     0.4320    -3.5720 ca         1 8RQ      -0.027000
     24 CAD         -1.0280     1.2150    -4.2810 ca         1 8RQ      -0.033500
     25 CAA         -1.7340     1.9130    -1.7000 ca         1 8RQ      -0.027000
     26 CAB         -0.8430     2.6970    -2.4090 ca         1 8RQ      -0.033500
     27 CAC         -0.4880     2.3470    -3.6980 ca         1 8RQ      -0.555000
     28 SAH          0.6470     3.3460    -4.6020 s6         1 8RQ       2.386000
     29 OAK          1.5030     3.9510    -3.6420 o          1 8RQ      -0.866500
     30 OAL          1.1250     2.5440    -5.6730 o          1 8RQ      -0.866500
     31 NAO         -0.2230     4.5760    -5.2910 n3         1 8RQ      -0.529000
     32 CAP         -0.5650     5.7620    -4.5030 c3         1 8RQ       0.008000
     33 CAV         -2.0910     5.8620    -4.3360 c3         1 8RQ      -0.143000
     34 CAW         -2.5190     7.1950    -4.9850 c3         1 8RQ      -0.112000
     35 CAX         -1.3910     7.5030    -5.9990 c3         1 8RQ      -0.112000
     36 CAY         -0.1170     7.0370    -5.2470 c3         1 8RQ      -0.143000
     37 CAN         -0.6510     4.4760    -6.6890 c3         1 8RQ       0.019000
     38 CAM         -2.0170     3.8450    -6.7520 ca         1 8RQ      -0.117000
     39 CAQ         -2.1420     2.4680    -6.7890 ca         1 8RQ      -0.103500
     40 CAR         -3.3940     1.8880    -6.8470 ca         1 8RQ      -0.098000
     41 CAS         -4.5250     2.6860    -6.8680 ca         1 8RQ      -0.108000
     42 Cl1         -6.1000     1.9570    -6.9400 cl         1 8RQ       0.060000
     43 CAT         -4.4010     4.0630    -6.8310 ca         1 8RQ      -0.098000
     44 CAU         -3.1470     4.6420    -6.7670 ca         1 8RQ      -0.103500
     45 H1          -0.3600    -0.0010    -1.0220 hc         1 8RQ       0.057500
     46 H2          -0.3600     0.8830     0.5140 hc         1 8RQ       0.057500
     47 H3           1.8900    -0.8860    -0.5090 hc         1 8RQ       0.053500
     48 H4           1.8890     0.8860    -0.5090 hc         1 8RQ       0.053500
     49 H5           1.6750     0.8830     1.9540 hc         1 8RQ       0.053500
     50 H6           3.1230    -0.0020     1.4420 hc         1 8RQ       0.053500
     51 H7           1.8890    -2.1340     1.6500 hc         1 8RQ       0.053500
     52 H8           1.8890    -1.2490     3.1850 hc         1 8RQ       0.053500
     53 H9          -0.3600    -0.3650     2.6730 hc         1 8RQ       0.057500
     54 H10         -0.3600    -2.1370     2.6720 hc         1 8RQ       0.057500
     55 H11         -0.1440    -2.1320     0.2090 hc         1 8RQ       0.078000
     56 H12         -2.4010    -2.0620     1.3380 h1         1 8RQ       0.075500
     57 H13         -2.4010    -0.3080     1.1140 h1         1 8RQ       0.075500
     58 H14         -2.2670    -2.4680    -2.4450 h1         1 8RQ       0.056500
     59 H15         -1.2580    -3.0250    -1.1020 h1         1 8RQ       0.056500
     60 H16         -4.2740    -3.3550    -1.3050 hc         1 8RQ       0.079000
     61 H17         -3.2660    -3.9100     0.0390 hc         1 8RQ       0.079000
     62 H18         -2.0090    -5.3730    -1.5080 hc         1 8RQ       0.058000
     63 H19         -3.0160    -4.8170    -2.8520 hc         1 8RQ       0.058000
     64 H20         -4.3690    -5.5640    -4.1110 hc         1 8RQ       0.066333
     65 H21         -6.1290    -5.7250    -4.0270 hc         1 8RQ       0.066333
     66 H22         -5.3290    -4.3520    -3.2500 hc         1 8RQ       0.066333
     67 H23         -6.1080    -7.7830    -2.4840 ho         1 8RQ       0.202000
     68 H24         -3.2780    -6.9600    -1.2020 DU         1 8RQ       0.322000
     69 H25         -3.5270    -7.3270     2.3850 h1         1 8RQ       0.045000
     70 H26         -1.7710    -7.2150     2.2060 h1         1 8RQ       0.045000
     71 H27         -2.6590    -8.5220     1.4110 h1         1 8RQ       0.045000
     72 H28         -2.3420    -0.4550    -4.0280 ha         1 8RQ       0.128500
     73 H29         -0.7520     0.9410    -5.2920 ha         1 8RQ       0.130000
     74 H30         -2.0120     2.1870    -0.6900 ha         1 8RQ       0.128500
     75 H31         -0.4220     3.5850    -1.9540 ha         1 8RQ       0.130000
     76 H32         -0.0900     5.7170    -3.5300 h1         1 8RQ       0.092000
     77 H33         -2.3480     5.8640    -3.2840 hc         1 8RQ       0.072000
     78 H34         -2.5730     5.0330    -4.8400 hc         1 8RQ       0.072000
     79 H35         -3.4660     7.0780    -5.4970 hc         1 8RQ       0.059750
     80 H36         -2.5790     7.9770    -4.2370 hc         1 8RQ       0.059750
     81 H37         -1.3440     8.5640    -6.2090 hc         1 8RQ       0.059750
     82 H38         -1.5280     6.9300    -6.9090 hc         1 8RQ       0.059750
     83 H39          0.6740     6.8060    -5.9500 hc         1 8RQ       0.072000
     84 H40          0.2020     7.7940    -4.5410 hc         1 8RQ       0.072000
     85 H41         -0.6910     5.4670    -7.1260 h1         1 8RQ       0.085500
     86 H42          0.0550     3.8670    -7.2400 h1         1 8RQ       0.085500
     87 H43         -1.2570     1.8440    -6.7730 ha         1 8RQ       0.130500
     88 H44         -3.4910     0.8100    -6.8760 ha         1 8RQ       0.116000
     89 H45         -5.2860     4.6870    -6.8450 ha         1 8RQ       0.116000
     90 H46         -3.0500     5.7200    -6.7390 ha         1 8RQ       0.130500
@<TRIPOS>BOND
     1     1     2 1   
     2     1     6 1   
     3     1    45 1   
     4     1    46 1   
     5     2     3 1   
     6     2    47 1   
     7     2    48 1   
     8     3     4 1   
     9     3    49 1   
    10     3    50 1   
    11     4     5 1   
    12     4    51 1   
    13     4    52 1   
    14     5     6 1   
    15     5    53 1   
    16     5    54 1   
    17     6     7 1   
    18     6    55 1   
    19     7     8 1   
    20     7    56 1   
    21     7    57 1   
    22     8     9 1   
    23     8    19 1   
    24     9    10 1   
    25     9    58 1   
    26     9    59 1   
    27    10    11 1   
    28    10    60 1   
    29    10    61 1   
    30    11    12 1   
    31    11    62 1   
    32    11    63 1   
    33    12    13 1   
    34    12    16 1   
    35    12    68 1   
    36    13    14 1   
    37    13    15 1   
    38    14    64 1   
    39    14    65 1   
    40    14    66 1   
    41    15    67 1   
    42    16    17 1   
    43    16    68 1   
    44    17    18 1   
    45    18    69 1   
    46    18    70 1   
    47    18    71 1   
    48    19    20 1   
    49    19    21 1   
    50    19    22 1   
    51    22    23 1   
    52    22    25 1   
    53    23    24 1   
    54    23    72 1   
    55    24    27 1   
    56    24    73 1   
    57    25    26 1   
    58    25    74 1   
    59    26    27 1   
    60    26    75 1   
    61    27    28 1   
    62    28    29 1   
    63    28    30 1   
    64    28    31 1   
    65    31    32 1   
    66    31    37 1   
    67    32    33 1   
    68    32    36 1   
    69    32    76 1   
    70    33    34 1   
    71    33    77 1   
    72    33    78 1   
    73    34    35 1   
    74    34    79 1   
    75    34    80 1   
    76    35    36 1   
    77    35    81 1   
    78    35    82 1   
    79    36    83 1   
    80    36    84 1   
    81    37    38 1   
    82    37    85 1   
    83    37    86 1   
    84    38    39 1   
    85    38    44 1   
    86    39    40 1   
    87    39    87 1   
    88    40    41 1   
    89    40    88 1   
    90    41    42 1   
    91    41    43 1   
    92    43    44 1   
    93    43    89 1   
    94    44    90 1   
@<TRIPOS>SUBSTRUCTURE
     1 8RQ         1 TEMP              0 ****  ****    0 ROOT
