@<TRIPOS>MOLECULE
molecule
   47    49     1     0     0
SMALL
bcc


@<TRIPOS>ATOM
      1 C13          0.0000     0.0000     0.0000 cc         1 8RR       0.071300
      2 C17         -2.8830    -0.2440    -3.3470 ca         1 8RR      -0.116000
      3 C21         -5.3760     0.2540    -6.5410 c3         1 8RR       0.015400
      4 C22         -6.3490     0.2230    -7.6920 c          1 8RR       0.895600
      5 C26         -5.1930    -3.5790    -4.7110 c3         1 8RR      -0.031800
      6 C05          3.6510    -0.0160     6.0440 ca         1 8RR      -0.172300
      7 C06          2.2670    -0.0170     6.0210 ca         1 8RR      -0.087500
      8 C07          1.5940    -0.0100     4.8180 ca         1 8RR      -0.101000
      9 C08          2.3130    -0.0020     3.6190 ca         1 8RR      -0.086500
     10 C09          1.6010    -0.0010     2.3300 cc         1 8RR       0.671900
     11 C11          1.3470     0.0000     0.0000 cd         1 8RR       0.376600
     12 C12          2.0580     0.0020    -1.3280 c3         1 8RR      -0.133400
     13 C14         -0.9680    -0.0050    -1.1550 c3         1 8RR       0.078000
     14 C16         -2.7780    -1.4720    -2.7050 ca         1 8RR      -0.031100
     15 C18         -3.7320    -0.1000    -4.4260 ca         1 8RR      -0.214000
     16 C19         -4.4820    -1.1810    -4.8680 ca         1 8RR       0.168100
     17 C25         -4.3780    -2.4070    -4.2280 ca         1 8RR      -0.113300
     18 C27         -3.5290    -2.5530    -3.1490 ca         1 8RR      -0.077000
     19 C29          3.7110    -0.0010     3.6500 ca         1 8RR      -0.101000
     20 C30          4.3690    -0.0020     4.8620 ca         1 8RR      -0.087500
     21 F01          4.6050    -1.3440     7.7640 f          1 8RR      -0.223967
     22 F03          5.6030     0.6390     7.2250 f          1 8RR      -0.223967
     23 F04          3.6020     0.6300     8.3280 f          1 8RR      -0.223967
     24 N10          2.0810     0.0000     1.1030 nd         1 8RR      -0.699000
     25 O20         -5.3190    -1.0370    -5.9310 os         1 8RR      -0.280900
     26 O23         -6.9330    -0.8010    -7.9610 o          1 8RR      -0.824800
     27 O24         -6.5670     1.3310    -8.4170 o          1 8RR      -0.824800
     28 S15         -1.6930    -1.6580    -1.3290 ss         1 8RR      -0.265000
     29 SE          -0.3490    -0.0030     1.9540 ss         1 8RR      -0.561300
     30 H1          -2.2980     0.5990    -3.0010 ha         1 8RR       0.113000
     31 H2          -5.7040     0.9850    -5.8120 h1         1 8RR       0.027200
     32 H3          -4.3930     0.5240    -6.9070 h1         1 8RR       0.027200
     33 H4          -6.2470    -3.3380    -4.6440 hc         1 8RR       0.044700
     34 H5          -4.9800    -4.4450    -4.0950 hc         1 8RR       0.044700
     35 H6          -4.9370    -3.7970    -5.7410 hc         1 8RR       0.044700
     36 H7           1.7110    -0.0240     6.9510 ha         1 8RR       0.150500
     37 H8           0.5100    -0.0120     4.8020 ha         1 8RR       0.159000
     38 H9           1.8180    -0.9060    -1.8670 hc         1 8RR       0.054033
     39 H10          3.1280     0.0540    -1.1640 hc         1 8RR       0.054033
     40 H11          1.7400     0.8610    -1.9060 hc         1 8RR       0.054033
     41 H12         -1.7540     0.7160    -0.9700 h1         1 8RR       0.084700
     42 H13         -0.4440     0.2570    -2.0660 h1         1 8RR       0.084700
     43 H14         -3.8140     0.8570    -4.9260 ha         1 8RR       0.149000
     44 H15         -3.4480    -3.5110    -2.6500 ha         1 8RR       0.131000
     45 H16          4.2750     0.0080     2.7260 ha         1 8RR       0.159000
     46 H17          5.4520    -0.0010     4.8870 ha         1 8RR       0.150500
     47 C02          4.3780    -0.0230     7.3640 c3         1 8RR       0.672200
@<TRIPOS>BOND
     1    26     4 1
     2    27     4 1
     3     4     3 1
     4     2    15 ar
     5     2    14 ar
     6    15    16 ar
     7    13    28 1
     8    13     1 1
     9    28    14 1
    10    14    18 ar
    11    12    11 1
    12     3    25 1
    13    16    25 1
    14    16    17 ar
    15    18    17 ar
    16    17     5 1
    17     1    11 2
    18     1    29 1
    19    11    24 1
    20    29    10 1
    21    24    10 2
    22    10     9 1
    23     9    19 ar
    24     9     8 ar
    25    19    20 ar
    26     8     7 ar
    27    20     6 ar
    28     7     6 ar
    29     6    47 1
    30    47    21 1
    31    47    23 1
    32    47    22 1
    33     2    30 1
    34     3    31 1
    35     3    32 1
    36     5    33 1
    37     5    34 1
    38     5    35 1
    39     7    36 1
    40     8    37 1
    41    12    38 1
    42    12    39 1
    43    12    40 1
    44    13    41 1
    45    13    42 1
    46    15    43 1
    47    18    44 1
    48    19    45 1
    49    20    46 1
@<TRIPOS>SUBSTRUCTURE
     1 8RR         1 TEMP              0 ****  ****    0 ROOT
