@<TRIPOS>MOLECULE
molecule
   31    32     1     0     0
SMALL
bcc


@<TRIPOS>ATOM
      1 N1           0.0000     0.0000     0.0000 n          1 8RS      -0.499800
      2 C4          -0.1180     0.9640     2.2360 c3         1 8RS       0.145800
      3 C5           1.9580     0.0000     1.4530 c3         1 8RS       0.145800
      4 C6           1.4710     0.0000     0.0000 c3         1 8RS       0.105500
      5 C7           1.8850     1.2490     3.4520 ca         1 8RS       0.102600
      6 C8           1.4340     2.2530     4.3010 ca         1 8RS      -0.166500
      7 C10          2.9640     1.5120     5.9870 ca         1 8RS      -0.153000
      8 C1           0.0370    -1.8450    -1.6480 c3         1 8RS      -0.170100
      9 C2          -0.6920    -0.9010    -0.7250 c          1 8RS       0.662100
     10 C3          -0.6950     1.0060     0.8170 c3         1 8RS       0.105500
     11 N2           1.3410     1.1170     2.1720 nh         1 8RS      -0.595000
     12 C9           1.9750     2.3810     5.5640 ca         1 8RS      -0.104000
     13 C11          3.4180     0.5150     5.1430 ca         1 8RS      -0.104000
     14 C12          2.8820     0.3810     3.8780 ca         1 8RS      -0.166500
     15 O1          -1.9000    -0.9520    -0.6350 o          1 8RS      -0.610100
     16 H1          -0.5400     1.7720     2.8210 h1         1 8RS       0.051450
     17 H2          -0.3600     0.0130     2.6950 h1         1 8RS       0.051450
     18 H3           1.6780    -0.9330     1.9270 h1         1 8RS       0.051450
     19 H4           3.0360     0.1110     1.4710 h1         1 8RS       0.051450
     20 H5           1.8340     0.8870    -0.5050 h1         1 8RS       0.063450
     21 H6           1.8340    -0.8870    -0.5050 h1         1 8RS       0.063450
     22 H7           0.6590     2.9340     3.9710 ha         1 8RS       0.134500
     23 H8           3.3860     1.6150     6.9790 ha         1 8RS       0.130000
     24 H9          -0.6810    -2.3740    -2.2630 hc         1 8RS       0.060700
     25 H10          0.6040    -2.5570    -1.0610 hc         1 8RS       0.060700
     26 H11          0.7100    -1.2810    -2.2820 hc         1 8RS       0.060700
     27 H12         -1.7540     0.7800     0.8490 h1         1 8RS       0.063450
     28 H13         -0.5400     1.9900     0.3920 h1         1 8RS       0.063450
     29 H14          1.6220     3.1630     6.2270 ha         1 8RS       0.130000
     30 H15          4.1950    -0.1630     5.4760 ha         1 8RS       0.130000
     31 H16          3.2380    -0.4010     3.2190 ha         1 8RS       0.134500
@<TRIPOS>BOND
     1     7    13 ar  
     2     7    12 ar  
     3    13    14 ar  
     4    12     6 ar  
     5    14     5 ar  
     6     6     5 ar  
     7     5    11 1   
     8     4     3 1   
     9     4     1 1   
    10    11     3 1   
    11    11     2 1   
    12    10     1 1   
    13    10     2 1   
    14     1     9 1   
    15     9     8 1   
    16     9    15 2   
    17     2    16 1   
    18     2    17 1   
    19     3    18 1   
    20     3    19 1   
    21     4    20 1   
    22     4    21 1   
    23     6    22 1   
    24     7    23 1   
    25     8    24 1   
    26     8    25 1   
    27     8    26 1   
    28    10    27 1   
    29    10    28 1   
    30    12    29 1   
    31    13    30 1   
    32    14    31 1   
@<TRIPOS>SUBSTRUCTURE
     1 8RS         1 TEMP              0 ****  ****    0 ROOT
