@<TRIPOS>MOLECULE
8RS
   31    32     1     0     0
SMALL
bcc


@<TRIPOS>ATOM
      1 N1           0.0000     0.0000     0.0000 n          1 8RS      -0.166800
      2 C4          -0.1180     0.9640     2.2360 c3         1 8RS       0.117800
      3 C5           1.9580     0.0000     1.4530 c3         1 8RS       0.117800
      4 C6           1.4710     0.0000     0.0000 c3         1 8RS       0.049000
      5 C7           1.8850     1.2490     3.4520 ca         1 8RS       0.019600
      6 C8           1.4340     2.2530     4.3010 ca         1 8RS      -0.147000
      7 C10          2.9640     1.5120     5.9870 ca         1 8RS      -0.126000
      8 C1           0.0370    -1.8450    -1.6480 c3         1 8RS      -0.072100
      9 C2          -0.6920    -0.9010    -0.7250 c          1 8RS       0.590100
     10 C3          -0.6950     1.0060     0.8170 c3         1 8RS       0.049000
     11 N2           1.3410     1.1170     2.1720 nh         1 8RS      -0.358000
     12 C9           1.9750     2.3810     5.5640 ca         1 8RS      -0.072500
     13 C11          3.4180     0.5150     5.1430 ca         1 8RS      -0.072500
     14 C12          2.8820     0.3810     3.8780 ca         1 8RS      -0.147000
     15 O1          -1.9000    -0.9520    -0.6350 o          1 8RS      -0.647100
     16 H1          -0.5400     1.7720     2.8210 h1         1 8RS       0.027200
     17 H2          -0.3600     0.0130     2.6950 h1         1 8RS       0.027200
     18 H3           1.6780    -0.9330     1.9270 h1         1 8RS       0.027200
     19 H4           3.0360     0.1110     1.4710 h1         1 8RS       0.027200
     20 H5           1.8340     0.8870    -0.5050 h1         1 8RS       0.035450
     21 H6           1.8340    -0.8870    -0.5050 h1         1 8RS       0.035450
     22 H7           0.6590     2.9340     3.9710 ha         1 8RS       0.117000
     23 H8           3.3860     1.6150     6.9790 ha         1 8RS       0.104000
     24 H9          -0.6810    -2.3740    -2.2630 hc         1 8RS       0.024367
     25 H10          0.6040    -2.5570    -1.0610 hc         1 8RS       0.024367
     26 H11          0.7100    -1.2810    -2.2820 hc         1 8RS       0.024367
     27 H12         -1.7540     0.7800     0.8490 h1         1 8RS       0.035450
     28 H13         -0.5400     1.9900     0.3920 h1         1 8RS       0.035450
     29 H14          1.6220     3.1630     6.2270 ha         1 8RS       0.101500
     30 H15          4.1950    -0.1630     5.4760 ha         1 8RS       0.101500
     31 H16          3.2380    -0.4010     3.2190 ha         1 8RS       0.117000
@<TRIPOS>BOND
     1     1     4 1   
     2     1     9 1   
     3     1    10 1   
     4     2    10 1   
     5     2    11 1   
     6     2    16 1   
     7     2    17 1   
     8     3     4 1   
     9     3    11 1   
    10     3    18 1   
    11     3    19 1   
    12     4    20 1   
    13     4    21 1   
    14     5     6 ar  
    15     5    11 1   
    16     5    14 ar  
    17     6    12 ar  
    18     6    22 1   
    19     7    12 ar  
    20     7    13 ar  
    21     7    23 1   
    22     8     9 1   
    23     8    24 1   
    24     8    25 1   
    25     8    26 1   
    26     9    15 2   
    27    10    27 1   
    28    10    28 1   
    29    12    29 1   
    30    13    14 ar  
    31    13    30 1   
    32    14    31 1   
@<TRIPOS>SUBSTRUCTURE
     1 8RS         1 TEMP              0 ****  ****    0 ROOT
