@<TRIPOS>MOLECULE
molecule
   53    56     1     0     0
SMALL
bcc


@<TRIPOS>ATOM
      1 C2           0.0000     0.0000     0.0000 c3         1 8RT       0.796700
      2 C41          5.3900   -10.4470    -2.9130 ca         1 8RT      -0.115800
      3 C42          5.5700   -11.8240    -2.7700 ca         1 8RT      -0.083000
      4 C44          6.7760   -12.3860    -3.0770 ca         1 8RT      -0.160000
      5 C46          7.8260   -11.6000    -3.5320 ca         1 8RT      -0.110000
      6 C48          7.6700   -10.2400    -3.6820 ca         1 8RT      -0.141000
      7 C12          1.0620    -3.6480     1.5000 ca         1 8RT      -0.072000
      8 C14          0.6890    -2.4250     0.9740 ca         1 8RT      -0.221000
      9 C18          0.2010    -7.0430    -0.8270 c          1 8RT       0.653100
     10 C20         -0.3060    -8.3520    -1.3750 c3         1 8RT       0.062700
     11 C23          0.3730   -10.6430    -1.2590 c3         1 8RT       0.094000
     12 C26         -1.0880   -10.5430    -0.7720 c3         1 8RT      -0.091400
     13 C29         -1.2060    -9.0600    -0.3300 c3         1 8RT      -0.090400
     14 F1           1.3990     0.0000     0.0000 f          1 8RT      -0.205300
     15 F3          -0.4660     0.0000     1.3190 f          1 8RT      -0.205300
     16 F4          -0.4670     1.1420    -0.6590 f          1 8RT      -0.205300
     17 O5          -0.4770    -1.1680    -0.6740 os         1 8RT      -0.341900
     18 C6          -0.1120    -2.3700    -0.1570 ca         1 8RT       0.141100
     19 C7          -0.5380    -3.5430    -0.7610 ca         1 8RT      -0.176000
     20 C9          -0.1630    -4.7690    -0.2320 ca         1 8RT       0.098600
     21 C10          0.6390    -4.8180     0.9020 ca         1 8RT      -0.149000
     22 N16         -0.5920    -5.9550    -0.8390 ns         1 8RT      -0.480100
     23 O19          1.3250    -6.9700    -0.3770 o          1 8RT      -0.539100
     24 N22          0.8150    -9.2840    -1.6010 n          1 8RT      -0.501800
     25 C32          2.0390    -8.9440    -2.0470 c          1 8RT       0.811100
     26 O33          2.2940    -7.7820    -2.3000 o          1 8RT      -0.636100
     27 N34          2.9830    -9.8920    -2.2140 ns         1 8RT      -0.462100
     28 C36          4.2620    -9.5380    -2.6810 cc         1 8RT      -0.011600
     29 C37          4.6850    -8.2990    -2.9990 cd         1 8RT      -0.103100
     30 N39          5.9930    -8.3470    -3.4160 na         1 8RT      -0.076400
     31 C40          6.4520    -9.6450    -3.3680 ca         1 8RT      -0.026200
     32 H2           6.9150   -13.4550    -2.9650 ha         1 8RT       0.126000
     33 H3           8.7770   -12.0610    -3.7720 ha         1 8RT       0.128000
     34 H4           8.4950    -9.6350    -4.0380 ha         1 8RT       0.126000
     35 H5           6.1760    -6.2950    -3.7780 h1         1 8RT       0.048033
     36 H6           7.6480    -7.0860    -3.1990 h1         1 8RT       0.048033
     37 H7           7.1090    -7.3320    -4.8660 h1         1 8RT       0.048033
     38 H8           1.6870    -3.6880     2.3830 ha         1 8RT       0.141000
     39 H9           1.0230    -1.5090     1.4460 ha         1 8RT       0.148000
     40 H10         -0.8550    -8.1950    -2.2960 h1         1 8RT       0.064700
     41 H11          0.9970   -11.0450    -0.4700 h1         1 8RT       0.044200
     42 H12          0.4250   -11.2770    -2.1360 h1         1 8RT       0.044200
     43 H13         -1.7760   -10.7560    -1.5810 hc         1 8RT       0.058700
     44 H14         -1.2560   -11.2060     0.0690 hc         1 8RT       0.058700
     45 H15         -0.8150    -8.9230     0.6710 hc         1 8RT       0.064700
     46 H16         -2.2300    -8.7150    -0.4060 hc         1 8RT       0.064700
     47 H17         -1.1640    -3.5020    -1.6450 ha         1 8RT       0.146000
     48 H18          0.9330    -5.7750     1.3160 ha         1 8RT       0.163000
     49 H19         -1.4840    -5.9910    -1.2900 hn         1 8RT       0.322500
     50 H20          2.7720   -10.8490    -2.0090 hn         1 8RT       0.319500
     51 H21          4.0830    -7.4010    -2.9370 h4         1 8RT       0.220000
     52 H1           4.7560   -12.4440    -2.4150 ha         1 8RT       0.119000
     53 C50          6.7830    -7.1900    -3.8430 c3         1 8RT       0.046600
@<TRIPOS>BOND
     1     5     6 ar
     2     5     4 ar
     3     6    31 ar
     4     4     3 ar
     5    53    30 1
     6    31    30 1
     7    31     2 ar
     8     3     2 ar
     9    30    29 1
    10     2    28 1
    11    29    28 2
    12    28    27 1
    13    27    25 1
    14    25    26 2
    15    25    24 1
    16    11    24 1
    17    11    12 1
    18    23     9 2
    19    24    10 1
    20    15     1 1
    21     9    10 1
    22     9    22 1
    23    16     1 1
    24    10    13 1
    25     7    21 ar
    26     7     8 ar
    27    21    20 ar
    28    12    13 1
    29     1    14 1
    30     1    17 1
    31     8    18 ar
    32    20    22 1
    33    20    19 ar
    34    18    19 ar
    35    18    17 1
    36     3    52 1
    37     4    32 1
    38     5    33 1
    39     6    34 1
    40    53    35 1
    41    53    36 1
    42    53    37 1
    43     7    38 1
    44     8    39 1
    45    10    40 1
    46    11    41 1
    47    11    42 1
    48    12    43 1
    49    12    44 1
    50    13    45 1
    51    13    46 1
    52    19    47 1
    53    21    48 1
    54    22    49 1
    55    27    50 1
    56    29    51 1
@<TRIPOS>SUBSTRUCTURE
     1 8RT         1 TEMP              0 ****  ****    0 ROOT
