@<TRIPOS>MOLECULE
8RV
   37    38     1     0     0
SMALL
bcc


@<TRIPOS>ATOM
      1 N1           0.0000     0.0000     0.0000 ns         1 8RV      -0.208900
      2 C4          -2.1210     1.1810    -0.3150 c3         1 8RV      -0.037900
      3 C5          -2.9070     0.0000     0.2600 c3         1 8RV       0.142300
      4 C6          -1.7080     0.1500     2.3610 c3         1 8RV       0.142300
      5 C7          -0.8870     1.3350     1.8500 c3         1 8RV      -0.037900
      6 C8          -3.8940    -0.8900     2.2840 c3         1 8RV       0.212100
      7 C10         -5.2970     0.2040     4.0440 ca         1 8RV      -0.091000
      8 C13         -3.6370    -0.7330     6.0470 ca         1 8RV      -0.100500
      9 C1           2.1010    -1.2590    -0.3460 c3         1 8RV      -0.069100
     10 C2           1.3480     0.0000     0.0000 c          1 8RV       0.572100
     11 C3          -0.7330     1.2250     0.3290 c3         1 8RV       0.020700
     12 N2          -3.0280     0.1520     1.7150 n3         1 8RV      -0.532600
     13 C9          -4.1920    -0.5630     3.7250 ca         1 8RV      -0.092300
     14 C11         -5.5710     0.5030     5.3660 ca         1 8RV      -0.100500
     15 C12         -4.7420     0.0350     6.3670 ca         1 8RV      -0.100000
     16 C14         -3.3630    -1.0320     4.7260 ca         1 8RV      -0.091000
     17 O1           1.9540     1.0120     0.2780 o          1 8RV      -0.647100
     18 H1          -0.5000    -0.8230    -0.2740 hn         1 8RV       0.178500
     19 H2          -2.0180     1.0580    -1.3860 hc         1 8RV       0.031950
     20 H3          -2.6470     2.1030    -0.1000 hc         1 8RV       0.031950
     21 H4          -3.8950    -0.0230    -0.1830 h1         1 8RV       0.011950
     22 H5          -2.3840    -0.9220     0.0370 h1         1 8RV       0.011950
     23 H6          -1.8330     0.2350     3.4330 h1         1 8RV       0.011950
     24 H7          -1.1940    -0.7730     2.1240 h1         1 8RV       0.011950
     25 H8          -1.3960     2.2590     2.0940 hc         1 8RV       0.031950
     26 H9           0.0920     1.3210     2.3130 hc         1 8RV       0.031950
     27 H10         -3.3920    -1.8480     2.2270 h1         1 8RV       0.010700
     28 H11         -4.8210    -0.9340     1.7240 h1         1 8RV       0.010700
     29 H13         -2.9870    -1.1000     6.8320 ha         1 8RV       0.102500
     30 H14          3.1630    -1.0490    -0.3730 hc         1 8RV       0.021700
     31 H15          1.9020    -2.0160     0.4030 hc         1 8RV       0.021700
     32 H16          1.7780    -1.6180    -1.3160 hc         1 8RV       0.021700
     33 H17         -0.1910     2.0870    -0.0410 h1         1 8RV       0.057700
     34 H19         -6.4370     1.1050     5.6170 ha         1 8RV       0.102500
     35 H20         -4.9570     0.2700     7.4030 ha         1 8RV       0.102000
     36 H21         -2.4970    -1.6330     4.4750 ha         1 8RV       0.106000
     37 H12         -5.9470     0.5710     3.2600 ha         1 8RV       0.106000
@<TRIPOS>BOND
     1     1    10 1   
     2     1    11 1   
     3     1    18 1   
     4     2     3 1   
     5     2    11 1   
     6     2    19 1   
     7     2    20 1   
     8     3    12 1   
     9     3    21 1   
    10     3    22 1   
    11     4     5 1   
    12     4    12 1   
    13     4    23 1   
    14     4    24 1   
    15     5    11 1   
    16     5    25 1   
    17     5    26 1   
    18     6    12 1   
    19     6    13 1   
    20     6    27 1   
    21     6    28 1   
    22     7    13 ar  
    23     7    14 ar  
    24     7    37 1   
    25     8    15 ar  
    26     8    16 ar  
    27     8    29 1   
    28     9    10 1   
    29     9    30 1   
    30     9    31 1   
    31     9    32 1   
    32    10    17 2   
    33    11    33 1   
    34    13    16 ar  
    35    14    15 ar  
    36    14    34 1   
    37    15    35 1   
    38    16    36 1   
@<TRIPOS>SUBSTRUCTURE
     1 8RV         1 TEMP              0 ****  ****    0 ROOT
