@<TRIPOS>MOLECULE
molecule
   37    38     1     0     0
SMALL
bcc


@<TRIPOS>ATOM
      1 N1           0.0000     0.0000     0.0000 ns         1 8RV      -0.588900
      2 C4          -2.1210     1.1810    -0.3150 c3         1 8RV      -0.090400
      3 C5          -2.9070     0.0000     0.2600 c3         1 8RV       0.160300
      4 C6          -1.7080     0.1500     2.3610 c3         1 8RV       0.160300
      5 C7          -0.8870     1.3350     1.8500 c3         1 8RV      -0.090400
      6 C8          -3.8940    -0.8900     2.2840 c3         1 8RV       0.209100
      7 C10         -5.2970     0.2040     4.0440 ca         1 8RV      -0.116500
      8 C13         -3.6370    -0.7330     6.0470 ca         1 8RV      -0.129000
      9 C1           2.1010    -1.2590    -0.3460 c3         1 8RV      -0.172100
     10 C2           1.3480     0.0000     0.0000 c          1 8RV       0.655100
     11 C3          -0.7330     1.2250     0.3290 c3         1 8RV       0.113700
     12 N2          -3.0280     0.1520     1.7150 n3         1 8RV      -0.724600
     13 C9          -4.1920    -0.5630     3.7250 ca         1 8RV      -0.081300
     14 C11         -5.5710     0.5030     5.3660 ca         1 8RV      -0.129000
     15 C12         -4.7420     0.0350     6.3670 ca         1 8RV      -0.126000
     16 C14         -3.3630    -1.0320     4.7260 ca         1 8RV      -0.116500
     17 O1           1.9540     1.0120     0.2780 o          1 8RV      -0.610100
     18 H1          -0.5000    -0.8230    -0.2740 hn         1 8RV       0.311500
     19 H2          -2.0180     1.0580    -1.3860 hc         1 8RV       0.061200
     20 H3          -2.6470     2.1030    -0.1000 hc         1 8RV       0.061200
     21 H4          -3.8950    -0.0230    -0.1830 h1         1 8RV       0.034200
     22 H5          -2.3840    -0.9220     0.0370 h1         1 8RV       0.034200
     23 H6          -1.8330     0.2350     3.4330 h1         1 8RV       0.034200
     24 H7          -1.1940    -0.7730     2.1240 h1         1 8RV       0.034200
     25 H8          -1.3960     2.2590     2.0940 hc         1 8RV       0.061200
     26 H9           0.0920     1.3210     2.3130 hc         1 8RV       0.061200
     27 H10         -3.3920    -1.8480     2.2270 h1         1 8RV       0.038200
     28 H11         -4.8210    -0.9340     1.7240 h1         1 8RV       0.038200
     29 H13         -2.9870    -1.1000     6.8320 ha         1 8RV       0.129500
     30 H14          3.1630    -1.0490    -0.3730 hc         1 8RV       0.059700
     31 H15          1.9020    -2.0160     0.4030 hc         1 8RV       0.059700
     32 H16          1.7780    -1.6180    -1.3160 hc         1 8RV       0.059700
     33 H17         -0.1910     2.0870    -0.0410 h1         1 8RV       0.080700
     34 H19         -6.4370     1.1050     5.6170 ha         1 8RV       0.129500
     35 H20         -4.9570     0.2700     7.4030 ha         1 8RV       0.129000
     36 H21         -2.4970    -1.6330     4.4750 ha         1 8RV       0.131000
     37 H12         -5.9470     0.5710     3.2600 ha         1 8RV       0.131000
@<TRIPOS>BOND
     1     7    14 ar
     2     7    13 ar
     3    14    15 ar
     4     6    13 1
     5     6    12 1
     6    13    16 ar
     7    15     8 ar
     8     3    12 1
     9     3     2 1
    10    12     4 1
    11    16     8 ar
    12     2    11 1
    13    11     1 1
    14    11     5 1
    15     4     5 1
    16     1    10 1
    17    10    17 2
    18    10     9 1
    19     1    18 1
    20     2    19 1
    21     2    20 1
    22     3    21 1
    23     3    22 1
    24     4    23 1
    25     4    24 1
    26     5    25 1
    27     5    26 1
    28     6    27 1
    29     6    28 1
    30     7    37 1
    31     8    29 1
    32     9    30 1
    33     9    31 1
    34     9    32 1
    35    11    33 1
    36    14    34 1
    37    15    35 1
    38    16    36 1
@<TRIPOS>SUBSTRUCTURE
     1 8RV         1 TEMP              0 ****  ****    0 ROOT
