@<TRIPOS>MOLECULE
molecule
   55    58     1     0     0
SMALL
bcc


@<TRIPOS>ATOM
      1 C4           0.0000     0.0000     0.0000 c3         1 8RW      -0.088400
      2 C14          9.3730    -0.1340    -0.6020 ca         1 8RW      -0.097000
      3 C5           1.5430     0.0000     0.0000 c3         1 8RW       0.086000
      4 C6           3.2590    -0.0190     1.8300 c          1 8RW       0.827100
      5 C11          6.8070    -0.0920     0.4390 ca         1 8RW      -0.090800
      6 C7           5.6170    -0.0640     1.3010 cc         1 8RW       0.161400
      7 C8           6.0520    -0.0580     2.5740 cd         1 8RW      -0.255400
      8 C10          7.9170    -0.0960     1.3010 ca         1 8RW       0.038600
      9 C12          6.9980    -0.1050    -0.9420 ca         1 8RW      -0.078000
     10 C13          8.2770    -0.1320    -1.4540 ca         1 8RW      -0.130000
     11 N1           1.9800     0.0000     1.4040 n          1 8RW      -0.486800
     12 N2           4.2650    -0.0420     0.9340 ns         1 8RW      -0.460100
     13 C3          -0.3470    -0.5720     1.4010 c3         1 8RW      -0.085400
     14 N3           7.4310    -0.0750     2.5960 n          1 8RW      -0.201200
     15 C1           1.0100    -0.8230     3.4960 c          1 8RW       0.656100
     16 C2           0.7860     0.0250     2.2700 c3         1 8RW       0.057700
     17 N4           7.6040    -0.0500     4.9230 nz         1 8RW      -0.677400
     18 O2           9.4020    -0.0880     3.6190 o          1 8RW      -0.488100
     19 C15          9.2000    -0.1170     0.7650 ca         1 8RW      -0.115000
     20 O3           3.5030    -0.0170     3.0210 o          1 8RW      -0.649100
     21 N5           0.2300    -0.6560     4.5820 ns         1 8RW      -0.471100
     22 C16          0.3630    -1.5170     5.6770 ca         1 8RW       0.087600
     23 C17          0.1520    -1.0400     6.9650 ca         1 8RW      -0.189000
     24 C18          0.2850    -1.8880     8.0470 ca         1 8RW      -0.068000
     25 C19          0.6240    -3.2140     7.8510 ca         1 8RW      -0.219000
     26 C20          0.8360    -3.6960     6.5670 ca         1 8RW       0.145100
     27 O4           1.1700    -4.9980     6.3760 os         1 8RW      -0.337900
     28 C21          1.2870    -5.8160     7.5420 c3         1 8RW       0.796700
     29 F1           0.0650    -5.8380     8.2210 f          1 8RW      -0.202300
     30 F2           1.6350    -7.1180     7.1660 f          1 8RW      -0.202300
     31 F3           2.2770    -5.2930     8.3810 f          1 8RW      -0.202300
     32 C22          0.7000    -2.8480     5.4790 ca         1 8RW      -0.145000
     33 H1          -0.3820    -0.6460    -0.7810 hc         1 8RW       0.069700
     34 H2          -0.3820     1.0080    -0.1060 hc         1 8RW       0.069700
     35 H3          10.3510    -0.2020    -1.0630 ha         1 8RW       0.158000
     36 H4           1.9100    -0.8890    -0.4990 h1         1 8RW       0.049200
     37 H5           1.9100     0.8890    -0.4990 h1         1 8RW       0.049200
     38 H6           5.4160    -0.0420     3.4500 h4         1 8RW       0.220000
     39 H7           6.2780    -0.0550    -1.7500 ha         1 8RW       0.153000
     40 H8           8.4550    -0.1580    -2.5220 ha         1 8RW       0.156000
     41 H9           4.0630    -0.0710    -0.0450 hn         1 8RW       0.335500
     42 H10         -0.3020    -1.6540     1.3970 hc         1 8RW       0.075700
     43 H11         -1.3160    -0.2180     1.7320 hc         1 8RW       0.075700
     44 H12          0.5460     1.0440     2.5490 h1         1 8RW       0.070700
     45 H13          7.7410    -0.9040     5.4260 hn         1 8RW       0.489133
     46 H14          6.6660     0.0470     4.5880 hn         1 8RW       0.489133
     47 H15         10.1940    -0.1830     1.1900 ha         1 8RW       0.172000
     48 H16         -0.3640     0.1460     4.6490 hn         1 8RW       0.329500
     49 H17         -0.1140    -0.0010     7.1210 ha         1 8RW       0.135000
     50 H18          0.1200    -1.5150     9.0510 ha         1 8RW       0.145000
     51 H19          0.7280    -3.8770     8.7010 ha         1 8RW       0.155000
     52 H20          0.8640    -3.2220     4.4760 ha         1 8RW       0.173000
     53 O1           1.8900    -1.6570     3.5040 o          1 8RW      -0.564100
     54 C9           8.1900    -0.0720     3.7100 c          1 8RW       0.588100
     55 H43          7.8800     0.7370     5.4760 hn         1 8RW       0.489133
@<TRIPOS>BOND
     1    30    28 1   
     2    17    54 1   
     3    31    28 1   
     4    18    54 2   
     5    28    27 1   
     6    28    29 1   
     7    54    14 1   
     8    27    26 1   
     9    14     7 1   
    10    14     8 1   
    11     7     6 2   
    12    32    26 ar  
    13    32    22 ar  
    14    26    25 ar  
    15    20     4 2   
    16     8    19 ar  
    17     8     5 ar  
    18     6    12 1   
    19     6     5 1   
    20    21    22 1   
    21    21    15 1   
    22     4    12 1   
    23     4    11 1   
    24    19     2 ar  
    25    22    23 ar  
    26    16    11 1   
    27    16    15 1   
    28    16    13 1   
    29    25    24 ar  
    30     5     9 ar  
    31    11     3 1   
    32    15    53 2   
    33    13     1 1   
    34     1     3 1   
    35     2    10 ar  
    36    23    24 ar  
    37     9    10 ar  
    38     1    33 1   
    39     1    34 1   
    40     2    35 1   
    41     3    36 1   
    42     3    37 1   
    43     7    38 1   
    44     9    39 1   
    45    10    40 1   
    46    12    41 1   
    47    13    42 1   
    48    13    43 1   
    49    16    44 1   
    50    17    45 1   
    51    17    46 1   
    52    19    47 1   
    53    21    48 1   
    54    23    49 1   
    55    24    50 1   
    56    25    51 1   
    57    32    52 1   
    58    55    17 1   
@<TRIPOS>SUBSTRUCTURE
     1 8RW         1 TEMP              0 ****  ****    0 ROOT
