@<TRIPOS>MOLECULE
8RY
   17    17     1     0     0
SMALL
bcc


@<TRIPOS>ATOM
      1 N1           0.0000     0.0000     0.0000 ns         1 8RY      -0.181900
      2 N3          -2.8040    -0.0000     2.3240 nb         1 8RY      -0.583000
      3 C4          -4.1250    -0.0000    -0.0250 ca         1 8RY       0.432200
      4 C5          -4.8340    -0.0000     1.1680 ca         1 8RY      -0.330600
      5 C6          -4.1250    -0.0000     2.3610 ca         1 8RY       0.432200
      6 C1           1.4660     0.0000     0.0000 c3         1 8RY       0.085300
      7 C2          -0.6730     0.0000     1.1680 c          1 8RY       0.477600
      8 C3          -2.1590    -0.0000     1.1680 ca         1 8RY       0.548500
      9 N2          -2.8050    -0.0000     0.0110 nb         1 8RY      -0.583000
     10 O1          -0.0650     0.0000     2.2190 o          1 8RY      -0.615100
     11 H1          -0.5000     0.0370    -0.8660 hn         1 8RY       0.187500
     12 H3          -5.9180    -0.0000     1.1690 ha         1 8RY       0.124000
     13 H4          -4.6470    -0.0000     3.3100 h4         1 8RY      -0.011400
     14 H5           1.8270    -0.8830     0.5140 h1         1 8RY       0.009700
     15 H6           1.8270    -0.0040    -1.0210 h1         1 8RY       0.009700
     16 H7           1.8270     0.8860     0.5070 h1         1 8RY       0.009700
     17 H2          -4.6480    -0.0000    -0.9740 h4         1 8RY      -0.011400
@<TRIPOS>BOND
     1     1     6 1   
     2     1     7 1   
     3     1    11 1   
     4     2     5 ar  
     5     2     8 ar  
     6     3     4 ar  
     7     3     9 ar  
     8     3    17 1   
     9     4     5 ar  
    10     4    12 1   
    11     5    13 1   
    12     6    14 1   
    13     6    15 1   
    14     6    16 1   
    15     7     8 1   
    16     7    10 2   
    17     8     9 ar  
@<TRIPOS>SUBSTRUCTURE
     1 8RY         1 TEMP              0 ****  ****    0 ROOT
