@<TRIPOS>MOLECULE
molecule
   17    17     1     0     0
SMALL
bcc


@<TRIPOS>ATOM
      1 N1           0.0000     0.0000     0.0000 ns         1 8RY      -0.573900
      2 N3          -2.8040    -0.0000     2.3240 nb         1 8RY      -0.705000
      3 C4          -4.1250    -0.0000    -0.0250 ca         1 8RY       0.455200
      4 C5          -4.8340    -0.0000     1.1680 ca         1 8RY      -0.370600
      5 C6          -4.1250    -0.0000     2.3610 ca         1 8RY       0.455200
      6 C1           1.4660     0.0000     0.0000 c3         1 8RY       0.104300
      7 C2          -0.6730     0.0000     1.1680 c          1 8RY       0.581600
      8 C3          -2.1590    -0.0000     1.1680 ca         1 8RY       0.643500
      9 N2          -2.8050    -0.0000     0.0110 nb         1 8RY      -0.705000
     10 O1          -0.0650     0.0000     2.2190 o          1 8RY      -0.566100
     11 H1          -0.5000     0.0370    -0.8660 hn         1 8RY       0.332500
     12 H3          -5.9180    -0.0000     1.1690 ha         1 8RY       0.149000
     13 H4          -4.6470    -0.0000     3.3100 h4         1 8RY       0.035100
     14 H5           1.8270    -0.8830     0.5140 h1         1 8RY       0.043367
     15 H6           1.8270    -0.0040    -1.0210 h1         1 8RY       0.043367
     16 H7           1.8270     0.8860     0.5070 h1         1 8RY       0.043367
     17 H2          -4.6480    -0.0000    -0.9740 h4         1 8RY       0.035100
@<TRIPOS>BOND
     1     3     4 ar  
     2     3     9 ar  
     3     4     5 ar  
     4     9     8 ar  
     5     5     2 ar  
     6     8     2 ar  
     7     8     7 1   
     8    10     7 2   
     9     7     1 1   
    10     1     6 1   
    11     1    11 1   
    12     3    17 1   
    13     4    12 1   
    14     5    13 1   
    15     6    14 1   
    16     6    15 1   
    17     6    16 1   
@<TRIPOS>SUBSTRUCTURE
     1 8RY         1 TEMP              0 ****  ****    0 ROOT
