@<TRIPOS>MOLECULE
8RZ
   56    60     1     0     0
SMALL
bcc


@<TRIPOS>ATOM
      1 C4           0.0000     0.0000     0.0000 cx         1 8RZ      -0.158700
      2 C14          7.5480     2.1680    -2.6440 ca         1 8RZ      -0.079000
      3 C5           1.5400     0.0000     0.0000 cx         1 8RZ      -0.090300
      4 C6           0.7480     0.0000     1.3370 cx         1 8RZ      -0.011400
      5 C11          7.2150    -0.5280    -3.2120 ca         1 8RZ      -0.170400
      6 C8           5.1970    -0.8030    -2.1440 cc         1 8RZ       0.045400
      7 C9           5.5570    -1.9730    -2.6990 cd         1 8RZ      -0.437400
      8 C12          6.2460     0.1720    -2.4740 ca         1 8RZ      -0.107800
      9 C13          6.4290     1.5260    -2.1910 ca         1 8RZ      -0.036000
     10 N1           1.9730    -1.2870    -0.5720 n          1 8RZ      -0.084800
     11 N2           4.0230    -0.5520    -1.4110 ns         1 8RZ       0.000900
     12 C3          -0.4020    -1.3700    -0.5950 c3         1 8RZ       0.013600
     13 N3           6.7730    -1.8330    -3.3350 n          1 8RZ       0.335800
     14 C1           0.9230    -3.3800    -1.3190 c          1 8RZ       0.574100
     15 C2           0.8590    -2.2350    -0.3410 c3         1 8RZ      -0.047300
     16 N4           6.8850    -4.0470    -4.0670 nz         1 8RZ       0.220600
     17 O2           8.4920    -2.5840    -4.5240 o          1 8RZ      -0.548100
     18 C15          8.5030     1.4840    -3.3830 ca         1 8RZ      -0.052000
     19 C16          8.3420     0.1440    -3.6680 ca         1 8RZ      -0.059000
     20 O3           3.4110    -2.6840    -1.5290 o          1 8RZ      -0.699100
     21 N5           0.5950    -4.6250    -0.9210 ns         1 8RZ      -0.014100
     22 C17          0.7500    -5.7040    -1.7980 ca         1 8RZ      -0.054400
     23 C18          1.1260    -6.9490    -1.3100 ca         1 8RZ      -0.166000
     24 C19          1.2790    -8.0140    -2.1760 ca         1 8RZ      -0.030000
     25 C20          1.0590    -7.8440    -3.5290 ca         1 8RZ      -0.219000
     26 C21          0.6830    -6.6020    -4.0230 ca         1 8RZ       0.155100
     27 O4           0.4670    -6.4370    -5.3540 os         1 8RZ      -0.312900
     28 C22          0.6450    -7.5840    -6.1880 c3         1 8RZ       0.756700
     29 F1           0.3830    -7.2390    -7.5190 f          1 8RZ      -0.195633
     30 F2           1.9610    -8.0430    -6.0760 f          1 8RZ      -0.195633
     31 F3          -0.2370    -8.5940    -5.7860 f          1 8RZ      -0.195633
     32 C23          0.5240    -5.5330    -3.1570 ca         1 8RZ      -0.130000
     33 H1          -0.4700     0.9000    -0.3780 hc         1 8RZ       0.081700
     34 H2           7.7250     3.2170    -2.4420 ha         1 8RZ       0.123000
     35 H3           1.9370     0.9330    -0.3820 h1         1 8RZ       0.079700
     36 H4           0.5050    -0.9150     1.8630 hc         1 8RZ       0.060700
     37 H5           0.5960     0.9640     1.8080 hc         1 8RZ       0.060700
     38 H6           5.0130    -2.9000    -2.5640 h4         1 8RZ       0.216000
     39 H7           5.6520     2.1310    -1.7400 ha         1 8RZ       0.112000
     40 H8           3.8060     0.3670    -1.0780 hn         1 8RZ       0.181500
     41 H9          -1.2590    -1.7860    -0.0780 hc         1 8RZ       0.042200
     42 H10         -0.6110    -1.2610    -1.6520 hc         1 8RZ       0.042200
     43 H11          0.8580    -2.5550     0.6940 h1         1 8RZ       0.046700
     44 H12          7.5620    -4.7700    -4.2110 hn         1 8RZ       0.246133
     45 H13          6.2870    -4.0800    -4.8690 hn         1 8RZ       0.246133
     46 H14          9.3840     2.0060    -3.7360 ha         1 8RZ       0.123000
     47 H15          9.0970    -0.4090    -4.2130 ha         1 8RZ       0.138000
     48 H16          0.5140    -4.8360     0.0540 hn         1 8RZ       0.168500
     49 H17          1.3060    -7.1110    -0.2540 ha         1 8RZ       0.113000
     50 H18          1.6170    -8.9770    -1.8100 ha         1 8RZ       0.111000
     51 H19          1.1690    -8.6850    -4.2030 ha         1 8RZ       0.136000
     52 H20          0.2180    -4.5690    -3.5460 ha         1 8RZ       0.159000
     53 C7           3.1450    -1.5490    -1.1840 c          1 8RZ       0.607100
     54 O1           1.2700    -3.1810    -2.4630 o          1 8RZ      -0.608100
     55 C10          7.4220    -2.8130    -3.9950 c          1 8RZ       0.262100
     56 H43          6.4300    -4.2280    -3.1940 hn         1 8RZ       0.246133
@<TRIPOS>BOND
     1     1     3 1   
     2     1     4 1   
     3     1    12 1   
     4     1    33 1   
     5     2     9 ar  
     6     2    18 ar  
     7     2    34 1   
     8     3     4 1   
     9     3    10 1   
    10     3    35 1   
    11     4    36 1   
    12     4    37 1   
    13     5     8 ar  
    14     5    13 1   
    15     5    19 ar  
    16     6     7 2   
    17     6     8 1   
    18     6    11 1   
    19     7    13 1   
    20     7    38 1   
    21     8     9 ar  
    22     9    39 1   
    23    10    15 1   
    24    10    53 1   
    25    11    40 1   
    26    11    53 1   
    27    12    15 1   
    28    12    41 1   
    29    12    42 1   
    30    13    55 1   
    31    14    15 1   
    32    14    21 1   
    33    14    54 2   
    34    15    43 1   
    35    16    44 1   
    36    16    45 1   
    37    16    55 1   
    38    16    56 1   
    39    17    55 2   
    40    18    19 ar  
    41    18    46 1   
    42    19    47 1   
    43    20    53 2   
    44    21    22 1   
    45    21    48 1   
    46    22    23 ar  
    47    22    32 ar  
    48    23    24 ar  
    49    23    49 1   
    50    24    25 ar  
    51    24    50 1   
    52    25    26 ar  
    53    25    51 1   
    54    26    27 1   
    55    26    32 ar  
    56    27    28 1   
    57    28    29 1   
    58    28    30 1   
    59    28    31 1   
    60    32    52 1   
@<TRIPOS>SUBSTRUCTURE
     1 8RZ         1 TEMP              0 ****  ****    0 ROOT
