@<TRIPOS>MOLECULE
molecule
   22    22     1     0     0
SMALL
bcc


@<TRIPOS>ATOM
      1 C1           0.0000     0.0000     0.0000 c          1 8S0       0.705600
      2 C2           1.5130     0.0000     0.0000 c3         1 8S0       0.035100
      3 C3           1.9970     0.0000     1.4550 c3         1 8S0       0.127100
      4 C4           1.3190    -1.1520     2.2050 c3         1 8S0       0.103100
      5 C5          -0.2000    -0.9600     2.1630 c3         1 8S0       0.164100
      6 C6          -0.8820    -2.1360     2.8660 c3         1 8S0       0.149400
      7 O1          -0.6210     0.7840    -0.6780 o          1 8S0      -0.526500
      8 O2           1.9940     1.1680    -0.6680 oh         1 8S0      -0.573800
      9 O3           3.4150    -0.1770     1.4880 oh         1 8S0      -0.599800
     10 O4           1.7610    -1.1600     3.5640 oh         1 8S0      -0.594800
     11 O5          -0.6350    -0.9030     0.7760 os         1 8S0      -0.418900
     12 O6          -2.2900    -1.9000     2.9290 oh         1 8S0      -0.594800
     13 H1           1.8760    -0.8890    -0.5030 h1         1 8S0       0.072700
     14 H2           1.7330     0.9410     1.9240 h1         1 8S0       0.070700
     15 H3           1.5770    -2.0910     1.7300 h1         1 8S0       0.056700
     16 H4          -0.4600    -0.0340     2.6610 h1         1 8S0       0.083700
     17 H5          -0.6930    -3.0470     2.3110 h1         1 8S0       0.039200
     18 H6          -0.4870    -2.2360     3.8690 h1         1 8S0       0.039200
     19 H7           2.2850     0.9370    -1.5340 ho         1 8S0       0.417000
     20 H8           3.8210     0.6030     1.8270 ho         1 8S0       0.420000
     21 H9           2.4020    -1.8410     3.6820 ho         1 8S0       0.418000
     22 H10         -2.7050    -2.5970     3.4090 ho         1 8S0       0.407000
@<TRIPOS>BOND
     1     7     1 2   
     2     1    11 1   
     3     1     2 1   
     4     8     2 1   
     5    11     5 1   
     6     2     3 1   
     7    12     6 1   
     8     5     6 1   
     9     5     4 1   
    10     3     4 1   
    11     3     9 1   
    12     4    10 1   
    13     2    13 1   
    14     3    14 1   
    15     4    15 1   
    16     5    16 1   
    17     6    17 1   
    18     6    18 1   
    19     8    19 1   
    20     9    20 1   
    21    10    21 1   
    22    12    22 1   
@<TRIPOS>SUBSTRUCTURE
     1 8S0         1 TEMP              0 ****  ****    0 ROOT
