@<TRIPOS>MOLECULE
molecule
   22    23     1     0     0
SMALL
bcc


@<TRIPOS>ATOM
      1 N1           0.0000     0.0000     0.0000 nc         1 8S1      -0.484800
      2 N3           0.5810    -0.0010     3.5290 nv         1 8S1      -0.954200
      3 C4          -1.8030    -0.0000     1.7200 ca         1 8S1       0.026800
      4 C5          -2.2420     0.8930     2.6880 ca         1 8S1      -0.117000
      5 C6          -3.5670     0.8900     3.0800 ca         1 8S1      -0.119000
      6 C7          -4.4560    -0.0010     2.5100 ca         1 8S1      -0.116000
      7 C8          -4.0240    -0.8930     1.5460 ca         1 8S1      -0.115000
      8 C10          0.6100    -0.0000     2.1470 cc         1 8S1       0.220300
      9 C1           3.1070    -0.0010     1.7920 ch         1 8S1       0.283800
     10 C2           1.7470     0.0000     1.3440 cd         1 8S1      -0.258300
     11 C3           1.3040     0.0000     0.0000 cd         1 8S1       0.377200
     12 N2          -0.4600     0.0010     1.3210 na         1 8S1       0.139300
     13 C9          -2.6990    -0.8990     1.1520 ca         1 8S1       0.036400
     14 Cl1         -2.1560    -2.0180    -0.0580 cl         1 8S1      -0.071400
     15 N4           4.1870    -0.0210     2.1440 n1         1 8S1      -0.384800
     16 H1           0.5350    -0.8670     4.0280 hn         1 8S1       0.446800
     17 H2           0.6300     0.8630     4.0310 hn         1 8S1       0.446800
     18 H3          -1.5460     1.5920     3.1360 ha         1 8S1       0.145000
     19 H4          -3.9100     1.5870     3.8360 ha         1 8S1       0.142000
     20 H5          -5.4950    -0.0030     2.8180 ha         1 8S1       0.142000
     21 H6          -4.7230    -1.5910     1.1010 ha         1 8S1       0.152000
     22 H7           1.9410    -0.0010    -0.8760 h4         1 8S1       0.061100
@<TRIPOS>BOND
     1     2     8 1
     2    14    13 1
     3     7    13 ar
     4     7     6 ar
     5    13     3 ar
     6     6     5 ar
     7    15     9 3
     8     8    10 2
     9     8    12 1
    10     9    10 1
    11     3    12 1
    12     3     4 ar
    13     5     4 ar
    14    10    11 1
    15    12     1 1
    16    11     1 2
    17     2    16 1
    18     2    17 1
    19     4    18 1
    20     5    19 1
    21     6    20 1
    22     7    21 1
    23    11    22 1
@<TRIPOS>SUBSTRUCTURE
     1 8S1         1 TEMP              0 ****  ****    0 ROOT
