@<TRIPOS>MOLECULE
8S1
   22    23     1     0     0
SMALL
bcc


@<TRIPOS>ATOM
      1 N1           0.0000     0.0000     0.0000 nc         1 8S1      -0.647800
      2 N3           0.5810    -0.0010     3.5290 nv         1 8S1      -0.502200
      3 C4          -1.8030    -0.0000     1.7200 ca         1 8S1      -0.156200
      4 C5          -2.2420     0.8930     2.6880 ca         1 8S1      -0.081000
      5 C6          -3.5670     0.8900     3.0800 ca         1 8S1      -0.093000
      6 C7          -4.4560    -0.0010     2.5100 ca         1 8S1      -0.074000
      7 C8          -4.0240    -0.8930     1.5460 ca         1 8S1      -0.092000
      8 C10          0.6100    -0.0000     2.1470 cc         1 8S1      -0.100700
      9 C1           3.1070    -0.0010     1.7920 ch         1 8S1       0.284800
     10 C2           1.7470     0.0000     1.3440 cd         1 8S1      -0.226300
     11 C3           1.3040     0.0000     0.0000 cd         1 8S1       0.439200
     12 N2          -0.4600     0.0010     1.3210 na         1 8S1       0.624300
     13 C9          -2.6990    -0.8990     1.1520 ca         1 8S1      -0.024600
     14 Cl1         -2.1560    -2.0180    -0.0580 cl         1 8S1       0.025600
     15 N4           4.1870    -0.0210     2.1440 n1         1 8S1      -0.407800
     16 H1           0.5350    -0.8670     4.0280 hn         1 8S1       0.281800
     17 H2           0.6300     0.8630     4.0310 hn         1 8S1       0.281800
     18 H3          -1.5460     1.5920     3.1360 ha         1 8S1       0.116000
     19 H4          -3.9100     1.5870     3.8360 ha         1 8S1       0.111000
     20 H5          -5.4950    -0.0030     2.8180 ha         1 8S1       0.110000
     21 H6          -4.7230    -1.5910     1.1010 ha         1 8S1       0.121000
     22 H7           1.9410    -0.0010    -0.8760 h4         1 8S1       0.012100
@<TRIPOS>BOND
     1     1    11 2   
     2     1    12 1   
     3     2     8 1   
     4     2    16 1   
     5     2    17 1   
     6     3     4 ar  
     7     3    12 1   
     8     3    13 ar  
     9     4     5 ar  
    10     4    18 1   
    11     5     6 ar  
    12     5    19 1   
    13     6     7 ar  
    14     6    20 1   
    15     7    13 ar  
    16     7    21 1   
    17     8    10 2   
    18     8    12 1   
    19     9    10 1   
    20     9    15 3   
    21    10    11 1   
    22    11    22 1   
    23    13    14 1   
@<TRIPOS>SUBSTRUCTURE
     1 8S1         1 TEMP              0 ****  ****    0 ROOT
