@<TRIPOS>MOLECULE
molecule
   58    61     1     0     0
SMALL
bcc


@<TRIPOS>ATOM
      1 C6           0.0000     0.0000     0.0000 ca         1 8S2       0.154100
      2 C7           1.3860     0.0000     0.0000 ca         1 8S2      -0.164000
      3 C10          1.3780    -0.0010     2.4040 ca         1 8S2      -0.153000
      4 C20          5.6510     0.7560     2.1110 c3         1 8S2       0.059700
      5 C26          7.5070    -0.0260     3.4550 c3         1 8S2       0.074500
      6 C28          6.2720    -0.5420     2.6690 c3         1 8S2      -0.104400
      7 F1          -2.5570     1.1320    -0.4290 f          1 8S2      -0.196633
      8 C2          -2.1070    -0.0100    -1.1010 c3         1 8S2       0.797700
      9 F3          -2.5330    -1.1530    -0.4150 f          1 8S2      -0.196633
     10 F4          -2.6420    -0.0140    -2.3940 f          1 8S2      -0.196633
     11 O5          -0.6800    -0.0050    -1.1770 os         1 8S2      -0.339900
     12 C9           2.0770     0.0000     1.2040 ca         1 8S2       0.055600
     13 C12         -0.0030    -0.0000     2.4000 ca         1 8S2      -0.068000
     14 C14         -0.6930    -0.0010     1.2030 ca         1 8S2      -0.197000
     15 N16          3.4770    -0.0010     1.2080 ns         1 8S2      -0.457100
     16 C18          4.1480     0.6700     2.1650 c          1 8S2       0.645100
     17 O19          3.5420     1.2030     3.0700 o          1 8S2      -0.565100
     18 N22          6.1200     1.8630     2.9570 n          1 8S2      -0.487800
     19 C23          6.9760     1.3130     4.0230 c3         1 8S2       0.085000
     20 N31          7.8660    -0.9530     4.5370 nz         1 8S2      -0.803600
     21 C34          5.8170     3.1650     2.7860 c          1 8S2       0.831100
     22 O35          5.0980     3.5060     1.8670 o          1 8S2      -0.624100
     23 N36          6.3100     4.0890     3.6340 ns         1 8S2      -0.458100
     24 C38          5.9940     5.4470     3.4560 cc         1 8S2       0.128400
     25 C39          5.2110     5.9660     2.4930 cd         1 8S2      -0.208400
     26 N41          5.1350     7.3350     2.6420 n          1 8S2      -0.204200
     27 C42          5.8890     7.7280     3.7320 ca         1 8S2       0.018600
     28 C43          6.4520     6.5670     4.2900 ca         1 8S2      -0.112800
     29 C44          7.2650     6.6610     5.4190 ca         1 8S2      -0.078000
     30 C46          7.5090     7.8930     5.9840 ca         1 8S2      -0.106000
     31 C48          6.9510     9.0380     5.4350 ca         1 8S2      -0.069000
     32 C50          6.1520     8.9620     4.3140 ca         1 8S2      -0.103000
     33 C52          4.4340     8.1640     1.8440 c          1 8S2       0.602100
     34 O53          4.4320     9.3600     2.0610 o          1 8S2      -0.467100
     35 N54          3.7330     7.6670     0.8060 nz         1 8S2      -0.666400
     36 H1           1.9280     0.0010    -0.9380 ha         1 8S2       0.151000
     37 H2           1.9170    -0.0010     3.3440 ha         1 8S2       0.155000
     38 H3           5.9800     0.9100     1.0900 h1         1 8S2       0.100700
     39 H4           8.3430     0.1440     2.7880 hx         1 8S2       0.139700
     40 H5           6.5800    -1.1960     1.8610 hc         1 8S2       0.094200
     41 H6           5.5780    -1.0420     3.3340 hc         1 8S2       0.094200
     42 H7          -0.5460    -0.0010     3.3380 ha         1 8S2       0.154000
     43 H8          -1.7760    -0.0010     1.2030 ha         1 8S2       0.166000
     44 H9           3.9790    -0.5210     0.5150 hn         1 8S2       0.329500
     45 H10          7.7990     1.9860     4.2290 h1         1 8S2       0.072700
     46 H11          6.3930     1.1350     4.9190 h1         1 8S2       0.072700
     47 H12          7.0730    -1.0960     5.1310 hn         1 8S2       0.465800
     48 H13          8.6180    -0.5660     5.0720 hn         1 8S2       0.465800
     49 H15          6.9000     3.8080     4.3920 hn         1 8S2       0.334500
     50 H16          4.7150     5.3940     1.7180 h4         1 8S2       0.212000
     51 H17          7.7030     5.7680     5.8500 ha         1 8S2       0.135000
     52 H18          8.1350     7.9680     6.8650 ha         1 8S2       0.163000
     53 H19          7.1500    10.0020     5.8880 ha         1 8S2       0.170000
     54 H20          5.7210     9.8620     3.8930 ha         1 8S2       0.171000
     55 H21          4.3550     7.1970     0.1780 hn         1 8S2       0.487133
     56 H22          3.0480     7.0210     1.1440 hn         1 8S2       0.487133
     57 H313         8.1730    -1.8210     4.1450 hn         1 8S2       0.465800
     58 H543         3.2720     8.4150     0.3260 hn         1 8S2       0.487133
@<TRIPOS>BOND
     1    10     8 1
     2    35    33 1
     3     7     8 1
     4     8    11 1
     5     8     9 1
     6    34    33 2
     7    33    26 1
     8    11     1 1
     9    26    25 1
    10    26    27 1
    11    25    24 2
    12     2     1 ar
    13     2    12 ar
    14     1    14 ar
    15    22    21 2
    16    27    32 ar
    17    27    28 ar
    18    24    23 1
    19    24    28 1
    20    15    12 1
    21    15    16 1
    22    21    23 1
    23    21    18 1
    24    32    31 ar
    25    12     3 ar
    26     4    18 1
    27     4     6 1
    28     4    16 1
    29    14    13 ar
    30    28    29 ar
    31    18    19 1
    32     6     5 1
    33    16    17 2
    34    31    30 ar
    35    19     5 1
    36     3    13 ar
    37    29    30 ar
    38     5    20 1
    39     2    36 1
    40     3    37 1
    41     4    38 1
    42     5    39 1
    43     6    40 1
    44     6    41 1
    45    13    42 1
    46    14    43 1
    47    15    44 1
    48    19    45 1
    49    19    46 1
    50    20    47 1
    51    20    48 1
    52    23    49 1
    53    25    50 1
    54    29    51 1
    55    30    52 1
    56    31    53 1
    57    32    54 1
    58    35    55 1
    59    35    56 1
    60    57    20 1
    61    58    35 1
@<TRIPOS>SUBSTRUCTURE
     1 8S2         1 TEMP              0 ****  ****    0 ROOT
