@<TRIPOS>MOLECULE
8S2
   58    61     1     0     0
SMALL
bcc


@<TRIPOS>ATOM
      1 C6           0.0000     0.0000     0.0000 ca         1 8S2       0.168100
      2 C7           1.3860     0.0000     0.0000 ca         1 8S2      -0.140000
      3 C10          1.3780    -0.0010     2.4040 ca         1 8S2      -0.130000
      4 C20          5.6510     0.7560     2.1110 c3         1 8S2      -0.024300
      5 C26          7.5070    -0.0260     3.4550 c3         1 8S2      -0.105500
      6 C28          6.2720    -0.5420     2.6690 c3         1 8S2      -0.022400
      7 F1          -2.5570     1.1320    -0.4290 f          1 8S2      -0.190300
      8 C2          -2.1070    -0.0100    -1.1010 c3         1 8S2       0.760700
      9 F3          -2.5330    -1.1530    -0.4150 f          1 8S2      -0.190300
     10 F4          -2.6420    -0.0140    -2.3940 f          1 8S2      -0.190300
     11 O5          -0.6800    -0.0050    -1.1770 os         1 8S2      -0.315900
     12 C9           2.0770     0.0000     1.2040 ca         1 8S2      -0.096400
     13 C12         -0.0030    -0.0000     2.4000 ca         1 8S2      -0.025000
     14 C14         -0.6930    -0.0010     1.2030 ca         1 8S2      -0.186000
     15 N16          3.4770    -0.0010     1.2080 ns         1 8S2       0.012900
     16 C18          4.1480     0.6700     2.1650 c          1 8S2       0.536100
     17 O19          3.5420     1.2030     3.0700 o          1 8S2      -0.619100
     18 N22          6.1200     1.8630     2.9570 n          1 8S2      -0.145800
     19 C23          6.9760     1.3130     4.0230 c3         1 8S2       0.054000
     20 N31          7.8660    -0.9530     4.5370 nz         1 8S2       0.097400
     21 C34          5.8170     3.1650     2.7860 c          1 8S2       0.619100
     22 O35          5.0980     3.5060     1.8670 o          1 8S2      -0.671100
     23 N36          6.3100     4.0890     3.6340 ns         1 8S2       0.004900
     24 C38          5.9940     5.4470     3.4560 cc         1 8S2       0.015400
     25 C39          5.2110     5.9660     2.4930 cd         1 8S2      -0.391400
     26 N41          5.1350     7.3350     2.6420 n          1 8S2       0.313800
     27 C42          5.8890     7.7280     3.7320 ca         1 8S2      -0.161400
     28 C43          6.4520     6.5670     4.2900 ca         1 8S2      -0.117800
     29 C44          7.2650     6.6610     5.4190 ca         1 8S2      -0.042000
     30 C46          7.5090     7.8930     5.9840 ca         1 8S2      -0.067000
     31 C48          6.9510     9.0380     5.4350 ca         1 8S2      -0.038000
     32 C50          6.1520     8.9620     4.3140 ca         1 8S2      -0.054000
     33 C52          4.4340     8.1640     1.8440 c          1 8S2       0.272100
     34 O53          4.4320     9.3600     2.0610 o          1 8S2      -0.511100
     35 N54          3.7330     7.6670     0.8060 nz         1 8S2       0.219600
     36 H1           1.9280     0.0010    -0.9380 ha         1 8S2       0.124000
     37 H2           1.9170    -0.0010     3.3440 ha         1 8S2       0.136000
     38 H3           5.9800     0.9100     1.0900 h1         1 8S2       0.065700
     39 H4           8.3430     0.1440     2.7880 hx         1 8S2       0.109700
     40 H5           6.5800    -1.1960     1.8610 hc         1 8S2       0.055700
     41 H6           5.5780    -1.0420     3.3340 hc         1 8S2       0.055700
     42 H7          -0.5460    -0.0010     3.3380 ha         1 8S2       0.118000
     43 H8          -1.7760    -0.0010     1.2030 ha         1 8S2       0.144000
     44 H9           3.9790    -0.5210     0.5150 hn         1 8S2       0.167500
     45 H10          7.7990     1.9860     4.2290 h1         1 8S2       0.037700
     46 H11          6.3930     1.1350     4.9190 h1         1 8S2       0.037700
     47 H12          7.0730    -1.0960     5.1310 hn         1 8S2       0.231133
     48 H13          8.6180    -0.5660     5.0720 hn         1 8S2       0.231133
     49 H15          6.9000     3.8080     4.3920 hn         1 8S2       0.169500
     50 H16          4.7150     5.3940     1.7180 h4         1 8S2       0.202000
     51 H17          7.7030     5.7680     5.8500 ha         1 8S2       0.101000
     52 H18          8.1350     7.9680     6.8650 ha         1 8S2       0.127000
     53 H19          7.1500    10.0020     5.8880 ha         1 8S2       0.131000
     54 H20          5.7210     9.8620     3.8930 ha         1 8S2       0.143000
     55 H21          4.3550     7.1970     0.1780 hn         1 8S2       0.247800
     56 H22          3.0480     7.0210     1.1440 hn         1 8S2       0.247800
     57 H313         8.1730    -1.8210     4.1450 hn         1 8S2       0.231133
     58 H543         3.2720     8.4150     0.3260 hn         1 8S2       0.247800
@<TRIPOS>BOND
     1     1     2 ar  
     2     1    11 1   
     3     1    14 ar  
     4     2    12 ar  
     5     2    36 1   
     6     3    12 ar  
     7     3    13 ar  
     8     3    37 1   
     9     4     6 1   
    10     4    16 1   
    11     4    18 1   
    12     4    38 1   
    13     5     6 1   
    14     5    19 1   
    15     5    20 1   
    16     5    39 1   
    17     6    40 1   
    18     6    41 1   
    19     7     8 1   
    20     8     9 1   
    21     8    10 1   
    22     8    11 1   
    23    12    15 1   
    24    13    14 ar  
    25    13    42 1   
    26    14    43 1   
    27    15    16 1   
    28    15    44 1   
    29    16    17 2   
    30    18    19 1   
    31    18    21 1   
    32    19    45 1   
    33    19    46 1   
    34    20    47 1   
    35    20    48 1   
    36    20    57 1   
    37    21    22 2   
    38    21    23 1   
    39    23    24 1   
    40    23    49 1   
    41    24    25 2   
    42    24    28 1   
    43    25    26 1   
    44    25    50 1   
    45    26    27 1   
    46    26    33 1   
    47    27    28 ar  
    48    27    32 ar  
    49    28    29 ar  
    50    29    30 ar  
    51    29    51 1   
    52    30    31 ar  
    53    30    52 1   
    54    31    32 ar  
    55    31    53 1   
    56    32    54 1   
    57    33    34 2   
    58    33    35 1   
    59    35    55 1   
    60    35    56 1   
    61    35    58 1   
@<TRIPOS>SUBSTRUCTURE
     1 8S2         1 TEMP              0 ****  ****    0 ROOT
