@<TRIPOS>MOLECULE
molecule
   24    25     1     0     0
SMALL
bcc


@<TRIPOS>ATOM
      1 N1           0.0000     0.0000     0.0000 na         1 8S4      -0.013400
      2 N3           0.6620     0.0000     1.9880 nc         1 8S4      -0.040000
      3 C4          -3.0510    -1.0090    -0.4790 ca         1 8S4      -0.058500
      4 C5          -1.8250    -1.1630    -1.1000 ca         1 8S4      -0.172300
      5 C6          -0.8700     0.0000    -1.1790 c3         1 8S4       0.115600
      6 C7           1.3450     0.0000     0.0000 cd         1 8S4       0.334400
      7 C8          -1.4730    -2.3830    -1.6460 ca         1 8S4      -0.058500
      8 C1          -5.6780    -4.1250    -0.2090 c3         1 8S4       0.126700
      9 C2          -3.5720    -3.3020    -0.9430 ca         1 8S4       0.162100
     10 C3          -3.9250    -2.0760    -0.4010 ca         1 8S4      -0.192000
     11 N2           1.7220     0.0000     1.2550 nc         1 8S4      -0.384000
     12 N4          -0.3800     0.0050     1.2330 nd         1 8S4      -0.226800
     13 C9          -2.3450    -3.4520    -1.5740 ca         1 8S4      -0.192000
     14 H1          -3.3260    -0.0510    -0.0560 ha         1 8S4       0.137000
     15 H2          -1.4320     0.9260    -1.2130 h1         1 8S4       0.074200
     16 H3          -0.2660    -0.0890    -2.0740 h1         1 8S4       0.074200
     17 H4           1.9920     0.0000    -0.8690 h5         1 8S4       0.075100
     18 H5          -0.5130    -2.5000    -2.1340 ha         1 8S4       0.137000
     19 H6          -6.2620    -5.0380    -0.2150 h1         1 8S4       0.044367
     20 H7          -5.4920    -3.8230     0.8140 h1         1 8S4       0.044367
     21 H8          -6.2240    -3.3440    -0.7230 h1         1 8S4       0.044367
     22 H9          -4.8860    -1.9550     0.0860 ha         1 8S4       0.145500
     23 H10         -2.0680    -4.4070    -2.0020 ha         1 8S4       0.145500
     24 O1          -4.4330    -4.3520    -0.8730 os         1 8S4      -0.324900
@<TRIPOS>BOND
     1     8    24 1
     2    24     9 1
     3    10     9 ar
     4    10     3 ar
     5     9    13 ar
     6     2    11 1
     7     2    12 2
     8     3     4 ar
     9    11     6 2
    10    12     1 1
    11    13     7 ar
    12     6     1 1
    13     4     7 ar
    14     4     5 1
    15     1     5 1
    16     3    14 1
    17     5    15 1
    18     5    16 1
    19     6    17 1
    20     7    18 1
    21     8    19 1
    22     8    20 1
    23     8    21 1
    24    10    22 1
    25    13    23 1
@<TRIPOS>SUBSTRUCTURE
     1 8S4         1 TEMP              0 ****  ****    0 ROOT
