@<TRIPOS>MOLECULE
8S5
   55    58     1     0     0
SMALL
bcc


@<TRIPOS>ATOM
      1 C4           0.0000     0.0000     0.0000 c3         1 8S5       0.134600
      2 C14          8.7500     3.1190     0.0280 ca         1 8S5      -0.071000
      3 C5           1.5490     0.0000     0.0000 c3         1 8S5      -0.085000
      4 C6           3.0930     0.4490     1.9280 c          1 8S5       0.611100
      5 C11          6.3700     1.9900     0.8660 ca         1 8S5      -0.096800
      6 C7           5.2510     1.4180     1.6290 cc         1 8S5       0.046400
      7 C8           5.6090     1.4360     2.9260 cd         1 8S5      -0.435400
      8 C10          7.3630     2.3150     1.8070 ca         1 8S5      -0.145400
      9 C12          6.5890     2.2340    -0.4900 ca         1 8S5      -0.042000
     10 C13          7.7690     2.7920    -0.8970 ca         1 8S5      -0.093000
     11 N1           1.9260     0.0000     1.4250 n          1 8S5      -0.055800
     12 N2           4.0340     0.9500     1.1040 ns         1 8S5       0.006900
     13 C3          -0.3120    -0.9150     1.2140 c3         1 8S5      -0.048400
     14 N3           6.8750     1.9670     3.0530 n          1 8S5       0.331800
     15 C1           1.2780    -1.8160     2.9140 c          1 8S5       0.550100
     16 C2           0.8180    -0.5690     2.2070 c3         1 8S5      -0.040300
     17 F1          -0.5020     1.2900     0.2010 f          1 8S5      -0.221300
     18 N4           6.9620     1.7480     5.3760 nz         1 8S5       0.210600
     19 O2           8.6540     2.6030     4.2200 o          1 8S5      -0.543100
     20 C15          8.5540     2.8810     1.3710 ca         1 8S5      -0.062000
     21 O3           3.2970     0.4010     3.1260 o          1 8S5      -0.715100
     22 N5           0.5770    -2.2950     3.9600 ns         1 8S5      -0.014100
     23 C16          0.9400    -3.5120     4.5490 ca         1 8S5      -0.063400
     24 C17          0.7650    -3.7050     5.9130 ca         1 8S5      -0.160000
     25 C18          1.1230    -4.9060     6.4940 ca         1 8S5      -0.027000
     26 C19          1.6550    -5.9190     5.7190 ca         1 8S5      -0.207000
     27 C20          1.8320    -5.7320     4.3540 ca         1 8S5       0.164100
     28 O4           2.3550    -6.7290     3.5940 os         1 8S5      -0.312900
     29 C21          2.7010    -7.9440     4.2630 c3         1 8S5       0.757700
     30 F2           3.2210    -8.8550     3.3380 f          1 8S5      -0.194633
     31 F3           3.6620    -7.6770     5.2450 f          1 8S5      -0.194633
     32 F4           1.5600    -8.4870     4.8620 f          1 8S5      -0.194633
     33 C22          1.4690    -4.5300     3.7680 ca         1 8S5      -0.126000
     34 H1          -0.3840    -0.4330    -0.9160 h1         1 8S5       0.054700
     35 H2           9.7090     3.4250    -0.3710 ha         1 8S5       0.123000
     36 H3           1.1250    -0.6350    -0.7680 h1         1 8S5       0.079200
     37 H4           1.9020     0.9180    -0.4540 h1         1 8S5       0.079200
     38 H5           4.9940     1.0860     3.7470 h4         1 8S5       0.212000
     39 H6           5.9070     2.1390    -1.3260 ha         1 8S5       0.119000
     40 H7           7.9790     2.9520    -1.9470 ha         1 8S5       0.122000
     41 H8           3.8780     0.9620     0.1160 hn         1 8S5       0.184500
     42 H9          -0.2620    -1.9590     0.9290 hc         1 8S5       0.052700
     43 H10         -1.2790    -0.6710     1.6370 hc         1 8S5       0.052700
     44 H11          0.4640     0.1600     2.9260 h1         1 8S5       0.054700
     45 H12          7.3490     0.8830     5.6980 hn         1 8S5       0.247467
     46 H13          5.9900     1.6400     5.1600 hn         1 8S5       0.247467
     47 H14          9.5060     3.0770     1.8500 ha         1 8S5       0.143000
     48 H15         -0.1340    -1.7310     4.3820 hn         1 8S5       0.171500
     49 H16          0.3490    -2.9120     6.5220 ha         1 8S5       0.110000
     50 H17          0.9860    -5.0540     7.5580 ha         1 8S5       0.111000
     51 H18          1.9350    -6.8600     6.1770 ha         1 8S5       0.137000
     52 H19          1.6070    -4.3820     2.7030 ha         1 8S5       0.150000
     53 O1           2.2800    -2.3910     2.5420 o          1 8S5      -0.622100
     54 C9           7.5380     2.1230     4.2160 c          1 8S5       0.261100
     55 H43          7.0670     2.4520     6.0800 hn         1 8S5       0.247467
@<TRIPOS>BOND
     1     1     3 1   
     2     1    13 1   
     3     1    17 1   
     4     1    34 1   
     5     2    10 ar  
     6     2    20 ar  
     7     2    35 1   
     8     3    11 1   
     9     3    36 1   
    10     3    37 1   
    11     4    11 1   
    12     4    12 1   
    13     4    21 2   
    14     5     6 1   
    15     5     8 ar  
    16     5     9 ar  
    17     6     7 2   
    18     6    12 1   
    19     7    14 1   
    20     7    38 1   
    21     8    14 1   
    22     8    20 ar  
    23     9    10 ar  
    24     9    39 1   
    25    10    40 1   
    26    11    16 1   
    27    12    41 1   
    28    13    16 1   
    29    13    42 1   
    30    13    43 1   
    31    14    54 1   
    32    15    16 1   
    33    15    22 1   
    34    15    53 2   
    35    16    44 1   
    36    18    45 1   
    37    18    46 1   
    38    18    54 1   
    39    18    55 1   
    40    19    54 2   
    41    20    47 1   
    42    22    23 1   
    43    22    48 1   
    44    23    24 ar  
    45    23    33 ar  
    46    24    25 ar  
    47    24    49 1   
    48    25    26 ar  
    49    25    50 1   
    50    26    27 ar  
    51    26    51 1   
    52    27    28 1   
    53    27    33 ar  
    54    28    29 1   
    55    29    30 1   
    56    29    31 1   
    57    29    32 1   
    58    33    52 1   
@<TRIPOS>SUBSTRUCTURE
     1 8S5         1 TEMP              0 ****  ****    0 ROOT
