@<TRIPOS>MOLECULE
molecule
   55    58     1     0     0
SMALL
bcc


@<TRIPOS>ATOM
      1 C4           0.0000     0.0000     0.0000 c3         1 8S5       0.115600
      2 C14          8.7500     3.1190     0.0280 ca         1 8S5      -0.095000
      3 C5           1.5490     0.0000     0.0000 c3         1 8S5      -0.005000
      4 C6           3.0930     0.4490     1.9280 c          1 8S5       0.833100
      5 C11          6.3700     1.9900     0.8660 ca         1 8S5      -0.094800
      6 C7           5.2510     1.4180     1.6290 cc         1 8S5       0.158400
      7 C8           5.6090     1.4360     2.9260 cd         1 8S5      -0.243400
      8 C10          7.3630     2.3150     1.8070 ca         1 8S5       0.034600
      9 C12          6.5890     2.2340    -0.4900 ca         1 8S5      -0.076000
     10 C13          7.7690     2.7920    -0.8970 ca         1 8S5      -0.129000
     11 N1           1.9260     0.0000     1.4250 n          1 8S5      -0.434800
     12 N2           4.0340     0.9500     1.1040 ns         1 8S5      -0.455100
     13 C3          -0.3120    -0.9150     1.2140 c3         1 8S5      -0.114400
     14 N3           6.8750     1.9670     3.0530 n          1 8S5      -0.196200
     15 C1           1.2780    -1.8160     2.9140 c          1 8S5       0.646100
     16 C2           0.8180    -0.5690     2.2070 c3         1 8S5       0.057700
     17 F1          -0.5020     1.2900     0.2010 f          1 8S5      -0.233300
     18 N4           6.9620     1.7480     5.3760 nz         1 8S5      -0.669400
     19 O2           8.6540     2.6030     4.2200 o          1 8S5      -0.488100
     20 C15          8.5540     2.8810     1.3710 ca         1 8S5      -0.116000
     21 O3           3.2970     0.4010     3.1260 o          1 8S5      -0.666100
     22 N5           0.5770    -2.2950     3.9600 ns         1 8S5      -0.469100
     23 C16          0.9400    -3.5120     4.5490 ca         1 8S5       0.082600
     24 C17          0.7650    -3.7050     5.9130 ca         1 8S5      -0.187000
     25 C18          1.1230    -4.9060     6.4940 ca         1 8S5      -0.068000
     26 C19          1.6550    -5.9190     5.7190 ca         1 8S5      -0.214000
     27 C20          1.8320    -5.7320     4.3540 ca         1 8S5       0.149100
     28 O4           2.3550    -6.7290     3.5940 os         1 8S5      -0.337900
     29 C21          2.7010    -7.9440     4.2630 c3         1 8S5       0.796700
     30 F2           3.2210    -8.8550     3.3380 f          1 8S5      -0.201300
     31 F3           3.6620    -7.6770     5.2450 f          1 8S5      -0.201300
     32 F4           1.5600    -8.4870     4.8620 f          1 8S5      -0.201300
     33 C22          1.4690    -4.5300     3.7680 ca         1 8S5      -0.144000
     34 H1          -0.3840    -0.4330    -0.9160 h1         1 8S5       0.084700
     35 H2           9.7090     3.4250    -0.3710 ha         1 8S5       0.158000
     36 H3           1.1250    -0.6350    -0.7680 h1         1 8S5       0.103700
     37 H4           1.9020     0.9180    -0.4540 h1         1 8S5       0.103700
     38 H5           4.9940     1.0860     3.7470 h4         1 8S5       0.216000
     39 H6           5.9070     2.1390    -1.3260 ha         1 8S5       0.152000
     40 H7           7.9790     2.9520    -1.9470 ha         1 8S5       0.155000
     41 H8           3.8780     0.9620     0.1160 hn         1 8S5       0.348500
     42 H9          -0.2620    -1.9590     0.9290 hc         1 8S5       0.087700
     43 H10         -1.2790    -0.6710     1.6370 hc         1 8S5       0.087700
     44 H11          0.4640     0.1600     2.9260 h1         1 8S5       0.085700
     45 H12          7.3490     0.8830     5.6980 hn         1 8S5       0.485133
     46 H13          5.9900     1.6400     5.1600 hn         1 8S5       0.485133
     47 H14          9.5060     3.0770     1.8500 ha         1 8S5       0.171000
     48 H15         -0.1340    -1.7310     4.3820 hn         1 8S5       0.330500
     49 H16          0.3490    -2.9120     6.5220 ha         1 8S5       0.134000
     50 H17          0.9860    -5.0540     7.5580 ha         1 8S5       0.145000
     51 H18          1.9350    -6.8600     6.1770 ha         1 8S5       0.156000
     52 H19          1.6070    -4.3820     2.7030 ha         1 8S5       0.172000
     53 O1           2.2800    -2.3910     2.5420 o          1 8S5      -0.572100
     54 C9           7.5380     2.1230     4.2160 c          1 8S5       0.595100
     55 H43          7.0670     2.4520     6.0800 hn         1 8S5       0.485133
@<TRIPOS>BOND
     1    17     1 1   
     2    18    54 1   
     3     3     1 1   
     4     3    11 1   
     5     1    13 1   
     6     7     6 2   
     7     7    14 1   
     8    12     6 1   
     9    12     4 1   
    10    54    14 1   
    11    54    19 2   
    12     6     5 1   
    13    14     8 1   
    14     5     8 ar  
    15     5     9 ar  
    16     8    20 ar  
    17    11     4 1   
    18    11    16 1   
    19     9    10 ar  
    20    20     2 ar  
    21     4    21 2   
    22    13    16 1   
    23    10     2 ar  
    24    16    15 1   
    25    53    15 2   
    26    15    22 1   
    27    22    23 1   
    28    23    24 ar  
    29    23    33 ar  
    30    24    25 ar  
    31    33    27 ar  
    32    25    26 ar  
    33    27    26 ar  
    34    27    28 1   
    35    31    29 1   
    36    28    29 1   
    37    29    32 1   
    38    29    30 1   
    39     1    34 1   
    40     2    35 1   
    41     3    36 1   
    42     3    37 1   
    43     7    38 1   
    44     9    39 1   
    45    10    40 1   
    46    12    41 1   
    47    13    42 1   
    48    13    43 1   
    49    16    44 1   
    50    18    45 1   
    51    18    46 1   
    52    20    47 1   
    53    22    48 1   
    54    24    49 1   
    55    25    50 1   
    56    26    51 1   
    57    33    52 1   
    58    55    18 1   
@<TRIPOS>SUBSTRUCTURE
     1 8S5         1 TEMP              0 ****  ****    0 ROOT
