@<TRIPOS>MOLECULE
8SD
   18    19     1     0     0
SMALL
bcc


@<TRIPOS>ATOM
      1 N1           0.0000     0.0000     0.0000 ns         1 8SD      -0.010100
      2 C4          -1.8510     0.0070     1.7350 ca         1 8SD      -0.097000
      3 C5          -2.1300     0.0130     3.0860 ca         1 8SD      -0.106000
      4 C6          -1.0990     0.0180     4.0140 ca         1 8SD       0.103100
      5 C7           0.2200     0.0170     3.5790 ca         1 8SD      -0.083000
      6 C8           0.4960     0.0100     2.2300 ca         1 8SD      -0.130300
      7 C1           1.7880     0.0000     1.4480 c3         1 8SD      -0.048100
      8 C2           1.3440     0.0000     0.0000 c          1 8SD       0.608500
      9 C3          -0.5300     0.0060     1.2930 ca         1 8SD      -0.117400
     10 O1          -1.3780     0.0240     5.3450 oh         1 8SD      -0.496100
     11 O2           2.0650     0.0000    -0.9750 o          1 8SD      -0.648500
     12 H1          -0.5580    -0.0000    -0.8310 hn         1 8SD       0.176500
     13 H2          -2.6610     0.0030     1.0160 ha         1 8SD       0.107000
     14 H3          -3.1590     0.0150     3.4240 ha         1 8SD       0.116000
     15 H4           1.0290     0.0210     4.2990 ha         1 8SD       0.116000
     16 H5           2.3680     0.8890     1.6650 hc         1 8SD       0.054200
     17 H6           2.3570    -0.8950     1.6680 hc         1 8SD       0.054200
     18 H7          -1.4000     0.9140     5.6580 ho         1 8SD       0.402000
@<TRIPOS>BOND
     1     1     8 1   
     2     1     9 1   
     3     1    12 1   
     4     2     3 ar  
     5     2     9 ar  
     6     2    13 1   
     7     3     4 ar  
     8     3    14 1   
     9     4     5 ar  
    10     4    10 1   
    11     5     6 ar  
    12     5    15 1   
    13     6     7 1   
    14     6     9 ar  
    15     7     8 1   
    16     7    16 1   
    17     7    17 1   
    18     8    11 2   
    19    10    18 1   
@<TRIPOS>SUBSTRUCTURE
     1 8SD         1 TEMP              0 ****  ****    0 ROOT
