@<TRIPOS>MOLECULE
molecule
   18    19     1     0     0
SMALL
bcc


@<TRIPOS>ATOM
      1 N1           0.0000     0.0000     0.0000 ns         1 8SD      -0.462100
      2 C4          -1.8510     0.0070     1.7350 ca         1 8SD      -0.144000
      3 C5          -2.1300     0.0130     3.0860 ca         1 8SD      -0.117000
      4 C6          -1.0990     0.0180     4.0140 ca         1 8SD       0.080100
      5 C7           0.2200     0.0170     3.5790 ca         1 8SD      -0.104000
      6 C8           0.4960     0.0100     2.2300 ca         1 8SD      -0.133300
      7 C1           1.7880     0.0000     1.4480 c3         1 8SD      -0.122100
      8 C2           1.3440     0.0000     0.0000 c          1 8SD       0.709500
      9 C3          -0.5300     0.0060     1.2930 ca         1 8SD       0.045600
     10 O1          -1.3780     0.0240     5.3450 oh         1 8SD      -0.516100
     11 O2           2.0650     0.0000    -0.9750 o          1 8SD      -0.604500
     12 H1          -0.5580    -0.0000    -0.8310 hn         1 8SD       0.337500
     13 H2          -2.6610     0.0030     1.0160 ha         1 8SD       0.137000
     14 H3          -3.1590     0.0150     3.4240 ha         1 8SD       0.147000
     15 H4           1.0290     0.0210     4.2990 ha         1 8SD       0.145000
     16 H5           2.3680     0.8890     1.6650 hc         1 8SD       0.092200
     17 H6           2.3570    -0.8950     1.6680 hc         1 8SD       0.092200
     18 H7          -1.4000     0.9140     5.6580 ho         1 8SD       0.418000
@<TRIPOS>BOND
     1     3     2 ar
     2     3     4 ar
     3    10     4 1
     4     2     9 ar
     5     4     5 ar
     6     9     1 1
     7     9     6 ar
     8     5     6 ar
     9     1     8 1
    10     6     7 1
    11     8     7 1
    12     8    11 2
    13     1    12 1
    14     2    13 1
    15     3    14 1
    16     5    15 1
    17     7    16 1
    18     7    17 1
    19    10    18 1
@<TRIPOS>SUBSTRUCTURE
     1 8SD         1 TEMP              0 ****  ****    0 ROOT
