@<TRIPOS>MOLECULE
molecule
   27    28     1     0     0
SMALL
bcc


@<TRIPOS>ATOM
      1 C13          0.0000     0.0000     0.0000 c3         1 8SF       0.006400
      2 C15          1.5300     0.0000     0.0000 c3         1 8SF      -0.087600
      3 C01         -1.5540    -2.3750     5.4410 ca         1 8SF      -0.119500
      4 C02         -2.2080    -1.8210     6.5240 ca         1 8SF      -0.114500
      5 C03         -2.1550    -0.4570     6.7420 ca         1 8SF      -0.121000
      6 C04         -1.4480     0.3570     5.8750 ca         1 8SF      -0.114500
      7 C05         -0.7920    -0.1910     4.7910 ca         1 8SF      -0.119500
      8 C06         -0.8430    -1.5600     4.5710 ca         1 8SF       0.005800
      9 N07         -0.1770    -2.1200     3.4710 na         1 8SF       0.017500
     10 C08         -0.0130    -1.5720     2.2400 cc         1 8SF       0.518800
     11 N09          0.6690    -2.4370     1.5200 nd         1 8SF      -0.430000
     12 N10          0.9420    -3.4830     2.2140 nd         1 8SF      -0.001000
     13 N11          0.4690    -3.3660     3.4070 nc         1 8SF      -0.209800
     14 S12         -0.6030     0.0000     1.7070 ss         1 8SF      -0.263400
     15 C14         -0.5100     1.2490    -0.7220 c3         1 8SF      -0.087600
     16 H1           1.8910     0.6170    -0.8140 hc         1 8SF       0.050033
     17 H2           1.8910     0.3960     0.9410 hc         1 8SF       0.050033
     18 H3           1.8910    -1.0130    -0.1270 hc         1 8SF       0.050033
     19 H5          -2.7620    -2.4570     7.2040 ha         1 8SF       0.141500
     20 H6          -2.6690    -0.0250     7.5920 ha         1 8SF       0.137000
     21 H7          -1.4080     1.4260     6.0480 ha         1 8SF       0.141500
     22 H8          -0.2380     0.4470     4.1130 ha         1 8SF       0.154500
     23 H9          -0.0880     2.1320    -0.2580 hc         1 8SF       0.050033
     24 H10         -1.5910     1.2870    -0.6560 hc         1 8SF       0.050033
     25 H11         -0.2130     1.2110    -1.7630 hc         1 8SF       0.050033
     26 H12         -0.3610    -0.8850    -0.5100 h1         1 8SF       0.090700
     27 H4          -1.5960    -3.4450     5.2720 ha         1 8SF       0.154500
@<TRIPOS>BOND
     1     1     2 1   
     2     1    14 1   
     3     1    15 1   
     4     3     4 ar  
     5     3     8 ar  
     6     4     5 ar  
     7     5     6 ar  
     8     6     7 ar  
     9     7     8 ar  
    10     8     9 1   
    11     9    10 1   
    12     9    13 1   
    13    10    11 2   
    14    10    14 1   
    15    11    12 1   
    16    12    13 2   
    17     1    26 1   
    18     2    16 1   
    19     2    17 1   
    20     2    18 1   
    21     3    27 1   
    22     4    19 1   
    23     5    20 1   
    24     6    21 1   
    25     7    22 1   
    26    15    23 1   
    27    15    24 1   
    28    15    25 1   
@<TRIPOS>SUBSTRUCTURE
     1 8SF         1 TEMP              0 ****  ****    0 ROOT
