@<TRIPOS>MOLECULE
molecule
   45    45     1     0     0
SMALL
bcc


@<TRIPOS>ATOM
      1 CAA          0.0000     0.0000     0.0000 c3         1 8SH      -0.095100
      2 CAB          1.5310     0.0000     0.0000 c3         1 8SH       0.198900
      3 OAC          2.0070     0.0000     1.3470 os         1 8SH      -0.590700
      4 PAD          3.5720     0.0010     1.7240 p5         1 8SH       1.429300
      5 OAE          4.2390    -1.1420     1.0610 o          1 8SH      -0.813300
      6 OAF          4.2430     1.3770     1.2250 os         1 8SH      -0.590700
      7 CAG          4.3500     1.7360    -0.1530 c3         1 8SH       0.198900
      8 CAH          5.0360     3.0980    -0.2730 c3         1 8SH      -0.095100
      9 CAI          3.7620    -0.1490     3.5310 c3         1 8SH      -0.216900
     10 CAJ          3.1430     1.0730     4.2120 c3         1 8SH       0.034700
     11 SAK          3.9840     2.5750     3.6380 sh         1 8SH      -0.406900
     12 CAL          3.0540    -1.4160     4.0140 c3         1 8SH      -0.059400
     13 CAM          3.7650    -2.6460     3.4490 c3         1 8SH      -0.100400
     14 CAN          3.1370    -3.9120     4.0350 c3         1 8SH      -0.032100
     15 CAO          3.8390    -5.1250     3.4770 ca         1 8SH      -0.076300
     16 CAP          4.9400    -5.6470     4.1290 ca         1 8SH      -0.121500
     17 CAQ          5.5830    -6.7590     3.6180 ca         1 8SH      -0.126000
     18 CAR          5.1250    -7.3480     2.4550 ca         1 8SH      -0.132000
     19 CAS          4.0240    -6.8260     1.8020 ca         1 8SH      -0.126000
     20 CAT          3.3770    -5.7170     2.3160 ca         1 8SH      -0.121500
     21 HAA3        -0.3610    -0.8780     0.5220 hc         1 8SH       0.046700
     22 HAA1        -0.3610    -0.0130    -1.0210 hc         1 8SH       0.046700
     23 HAA2        -0.3610     0.8910     0.4990 hc         1 8SH       0.046700
     24 HAB1         1.8920     0.8840    -0.5110 h1         1 8SH       0.033200
     25 HAB2         1.8920    -0.8850    -0.5110 h1         1 8SH       0.033200
     26 HAG1         4.9360     0.9890    -0.6760 h1         1 8SH       0.033200
     27 HAG2         3.3610     1.7900    -0.5910 h1         1 8SH       0.033200
     28 HAH2         4.4030     3.8610     0.1630 hc         1 8SH       0.046700
     29 HAH1         5.2080     3.3260    -1.3180 hc         1 8SH       0.046700
     30 HAH3         5.9840     3.0730     0.2510 hc         1 8SH       0.046700
     31 HAI1         4.8150    -0.2070     3.7800 hc         1 8SH       0.113700
     32 HAJ1         3.2570     0.9850     5.2850 h1         1 8SH       0.066700
     33 HAJ2         2.0910     1.1310     3.9630 h1         1 8SH       0.066700
     34 HAK1         3.8600     3.5290     4.5530 hs         1 8SH       0.213800
     35 HAL1         3.0770    -1.4510     5.0970 hc         1 8SH       0.047700
     36 HAL2         2.0250    -1.4060     3.6750 hc         1 8SH       0.047700
     37 HAM2         4.8150    -2.6090     3.7120 hc         1 8SH       0.075700
     38 HAM1         3.6630    -2.6590     2.3710 hc         1 8SH       0.075700
     39 HAN2         2.0870    -3.9500     3.7720 hc         1 8SH       0.042700
     40 HAN1         3.2390    -3.9000     5.1130 hc         1 8SH       0.042700
     41 HAP1         5.3000    -5.1840     5.0410 ha         1 8SH       0.128500
     42 HAQ1         6.4470    -7.1680     4.1280 ha         1 8SH       0.126500
     43 HAR1         5.6300    -8.2180     2.0530 ha         1 8SH       0.126000
     44 HAS1         3.6630    -7.2890     0.8920 ha         1 8SH       0.126500
     45 HAT1         2.5150    -5.3080     1.8050 ha         1 8SH       0.128500
@<TRIPOS>BOND
     1    11    10 1   
     2    10     9 1   
     3     9    12 1   
     4     9     4 1   
     5    14    15 1   
     6    14    13 1   
     7     5     4 2   
     8    15    16 ar  
     9    15    20 ar  
    10    12    13 1   
    11    16    17 ar  
    12    20    19 ar  
    13     4     6 1   
    14     4     3 1   
    15    17    18 ar  
    16    19    18 ar  
    17     6     7 1   
    18     8     7 1   
    19     3     2 1   
    20     2     1 1   
    21     1    21 1   
    22     1    22 1   
    23     1    23 1   
    24     2    24 1   
    25     2    25 1   
    26     7    26 1   
    27     7    27 1   
    28     8    28 1   
    29     8    29 1   
    30     8    30 1   
    31     9    31 1   
    32    10    32 1   
    33    10    33 1   
    34    11    34 1   
    35    12    35 1   
    36    12    36 1   
    37    13    37 1   
    38    13    38 1   
    39    14    39 1   
    40    14    40 1   
    41    16    41 1   
    42    17    42 1   
    43    18    43 1   
    44    19    44 1   
    45    20    45 1   
@<TRIPOS>SUBSTRUCTURE
     1 8SH         1 TEMP              0 ****  ****    0 ROOT
