@<TRIPOS>MOLECULE
molecule
   24    24     1     0     0
SMALL
bcc


@<TRIPOS>ATOM
      1 N1           0.0000     0.0000     0.0000 no         1 8SJ       0.285200
      2 N3           8.5510     0.1870    -0.0000 n2         1 8SJ      -0.715100
      3 C4           2.1720     0.0000     1.1960 ca         1 8SJ      -0.074000
      4 C5           1.4810     0.0000     0.0000 ca         1 8SJ      -0.127200
      5 C6           2.1720    -0.0010    -1.1980 ca         1 8SJ      -0.074000
      6 C7           3.5540    -0.0030    -1.1980 ca         1 8SJ      -0.116000
      7 C8           8.0950     1.4090    -0.0010 c2         1 8SJ       0.463100
      8 C2           4.2450    -0.0030    -0.0000 ca         1 8SJ      -0.066300
      9 C3           3.5540     0.0040     1.1970 ca         1 8SJ      -0.116000
     10 O1          -0.6090     0.0010     1.0550 o          1 8SJ      -0.182000
     11 O2          -0.6090     0.0060    -1.0550 o          1 8SJ      -0.182000
     12 S1           6.3570     1.7010    -0.0010 ss         1 8SJ      -0.103300
     13 N2           8.9710     2.4700    -0.0010 nz         1 8SJ      -0.786600
     14 H1           9.5380     0.0200     0.0000 hn         1 8SJ       0.437400
     15 H2           1.6300    -0.0020     2.1350 ha         1 8SJ       0.181000
     16 H3           1.6300     0.0110    -2.1360 ha         1 8SJ       0.181000
     17 H4           3.9500    -0.0180    -2.2060 ha         1 8SJ       0.158000
     18 H5           6.1130    -0.5160    -0.8840 h1         1 8SJ       0.102700
     19 H6           6.1130    -0.5150     0.8850 h1         1 8SJ       0.102700
     20 H7           3.9500    -0.0080     2.2060 ha         1 8SJ       0.158000
     21 H8           8.4560     3.3280    -0.0030 hn         1 8SJ       0.468800
     22 H9           9.5460     2.4280     0.8170 hn         1 8SJ       0.468800
     23 C1           5.7520    -0.0050    -0.0000 c3         1 8SJ       0.065000
     24 H23          9.5480     2.4260    -0.8180 hn         1 8SJ       0.468800
@<TRIPOS>BOND
     1    23     8 1   
     2    23    12 1   
     3     8     6 ar  
     4     8     9 ar  
     5     6     5 ar  
     6     9     3 ar  
     7    12     7 1   
     8     5     4 ar  
     9     3     4 ar  
    10     4     1 1   
    11     1    10 1   
    12     1    11 1   
    13     7     2 2   
    14     7    13 1   
    15     2    14 1   
    16     3    15 1   
    17     5    16 1   
    18     6    17 1   
    19    23    18 1   
    20    23    19 1   
    21     9    20 1   
    22    13    21 1   
    23    13    22 1   
    24    24    13 1   
@<TRIPOS>SUBSTRUCTURE
     1 8SJ         1 TEMP              0 ****  ****    0 ROOT
