@<TRIPOS>MOLECULE
8SJ
   24    24     1     0     0
SMALL
bcc


@<TRIPOS>ATOM
      1 N1           0.0000     0.0000     0.0000 no         1 8SJ       1.033200
      2 N3           8.5510     0.1870    -0.0000 n2         1 8SJ      -0.499100
      3 C4           2.1720     0.0000     1.1960 ca         1 8SJ      -0.010000
      4 C5           1.4810     0.0000     0.0000 ca         1 8SJ      -0.411200
      5 C6           2.1720    -0.0010    -1.1980 ca         1 8SJ      -0.010000
      6 C7           3.5540    -0.0030    -1.1980 ca         1 8SJ      -0.101000
      7 C8           8.0950     1.4090    -0.0010 c2         1 8SJ       0.152100
      8 C2           4.2450    -0.0030    -0.0000 ca         1 8SJ      -0.050300
      9 C3           3.5540     0.0040     1.1970 ca         1 8SJ      -0.101000
     10 O1          -0.6090     0.0010     1.0550 o          1 8SJ      -0.426000
     11 O2          -0.6090     0.0060    -1.0550 o          1 8SJ      -0.426000
     12 S1           6.3570     1.7010    -0.0010 ss         1 8SJ      -0.230300
     13 N2           8.9710     2.4700    -0.0010 nz         1 8SJ       0.215400
     14 H1           7.9150    -0.5860     0.0010 hn         1 8SJ       0.381400
     15 H2           1.6300    -0.0020     2.1350 ha         1 8SJ       0.147000
     16 H3           1.6300     0.0110    -2.1360 ha         1 8SJ       0.147000
     17 H4           3.9380    -0.0150    -2.2100 ha         1 8SJ       0.129000
     18 H5           6.1130    -0.5150     0.8850 h1         1 8SJ       0.055700
     19 H6           6.1130    -0.5160    -0.8840 h1         1 8SJ       0.055700
     20 H7           3.9380    -0.0040     2.2100 ha         1 8SJ       0.129000
     21 H8           9.4890     2.4750    -0.8570 hn         1 8SJ       0.222800
     22 H9           9.6020     2.3810     0.7700 hn         1 8SJ       0.222800
     23 C1           5.7520    -0.0050    -0.0000 c3         1 8SJ       0.153000
     24 H23          8.4590     3.3260     0.0830 hn         1 8SJ       0.222800
@<TRIPOS>BOND
     1     1     4 1   
     2     1    10 1   
     3     1    11 1   
     4     2     7 2   
     5     2    14 1   
     6     3     4 ar  
     7     3     9 ar  
     8     3    15 1   
     9     4     5 ar  
    10     5     6 ar  
    11     5    16 1   
    12     6     8 ar  
    13     6    17 1   
    14     7    12 1   
    15     7    13 1   
    16     8     9 ar  
    17     8    23 1   
    18     9    20 1   
    19    12    23 1   
    20    13    21 1   
    21    13    22 1   
    22    13    24 1   
    23    18    23 1   
    24    19    23 1   
@<TRIPOS>SUBSTRUCTURE
     1 8SJ         1 TEMP              0 ****  ****    0 ROOT
