@<TRIPOS>MOLECULE
molecule
   51    53     1     0     0
SMALL
bcc


@<TRIPOS>ATOM
      1 C10          0.0000     0.0000     0.0000 c3         1 8SL      -0.089100
      2 C13          4.6600     0.7170    -5.0900 ca         1 8SL      -0.104000
      3 C15          3.4930     2.3600    -6.3810 ca         1 8SL      -0.114000
      4 C17          2.5300     1.5250    -4.3550 ca         1 8SL      -0.104000
      5 C20         10.2140     1.2730    -2.9860 ca         1 8SL      -0.072500
      6 C21         11.4290     0.9220    -3.5450 ca         1 8SL      -0.192000
      7 C22         12.0490    -0.2600    -3.1670 ca         1 8SL       0.148100
      8 C24         10.2310    -0.7370    -1.6790 ca         1 8SL      -0.072500
      9 C26         13.8240    -1.8390    -3.2800 c3         1 8SL       0.127700
     10 N01          5.6010     1.4690    -0.4300 nc         1 8SL      -0.370000
     11 N02          4.4060     1.7200    -0.0300 nc         1 8SL      -0.349000
     12 C03          3.5390     1.1830    -0.8430 cd         1 8SL       0.366800
     13 N04          4.2450     0.5480    -1.8280 na         1 8SL      -0.307700
     14 C05          5.5620     0.7530    -1.5300 cd         1 8SL       0.466800
     15 S06          6.9470     0.1670    -2.4480 ss         1 8SL      -0.295400
     16 C07          2.0390     1.2510    -0.7210 c3         1 8SL      -0.088700
     17 C08          1.5300     0.0000     0.0000 c3         1 8SL      -0.077700
     18 C09          2.0400     0.0000     1.4420 c3         1 8SL      -0.089100
     19 C11          3.7010    -0.1970    -2.9660 c3         1 8SL       0.094600
     20 C12          3.6280     0.7070    -4.1700 ca         1 8SL      -0.126300
     21 C14          4.5940     1.5460    -6.1940 ca         1 8SL      -0.128000
     22 C16          2.4580     2.3450    -5.4650 ca         1 8SL      -0.128000
     23 C18          8.2960     0.8330    -1.4410 c3         1 8SL       0.066000
     24 C19          9.6170     0.4460    -2.0530 ca         1 8SL      -0.129300
     25 C23         11.4480    -1.0880    -2.2310 ca         1 8SL      -0.192000
     26 H1          -0.3610    -0.8860     0.5090 hc         1 8SL       0.039200
     27 H2          -0.3610     0.0020    -1.0210 hc         1 8SL       0.039200
     28 H3          -0.3610     0.8830     0.5130 hc         1 8SL       0.039200
     29 H4           5.5220     0.0770    -4.9440 ha         1 8SL       0.135000
     30 H5           3.4380     3.0060    -7.2490 ha         1 8SL       0.132000
     31 H6           1.7200     1.5160    -3.6350 ha         1 8SL       0.135000
     32 H7           9.7310     2.1970    -3.2790 ha         1 8SL       0.139000
     33 H8          11.8970     1.5700    -4.2760 ha         1 8SL       0.141500
     34 H9           9.7610    -1.3830    -0.9480 ha         1 8SL       0.139000
     35 H10         13.9970    -1.7990    -2.2110 h1         1 8SL       0.042367
     36 H11         13.1670    -2.6690    -3.5090 h1         1 8SL       0.042367
     37 H12         14.7680    -1.9720    -3.7940 h1         1 8SL       0.042367
     38 H13          1.7620     2.1320    -0.1560 hc         1 8SL       0.063700
     39 H14          1.5990     1.3020    -1.7100 hc         1 8SL       0.063700
     40 H15          1.8910    -0.8840    -0.5110 hc         1 8SL       0.045700
     41 H16          2.2860     1.0130     1.7380 hc         1 8SL       0.039200
     42 H17          2.9250    -0.6220     1.5120 hc         1 8SL       0.039200
     43 H18          1.2720    -0.3910     2.0980 hc         1 8SL       0.039200
     44 H19          2.7080    -0.5540    -2.7220 h1         1 8SL       0.073700
     45 H20          4.3440    -1.0400    -3.1860 h1         1 8SL       0.073700
     46 H21          5.4030     1.5550    -6.9140 ha         1 8SL       0.134000
     47 H22          1.5960     2.9850    -5.6110 ha         1 8SL       0.134000
     48 H23          8.2190     1.9120    -1.4020 h1         1 8SL       0.085200
     49 H24          8.2310     0.4300    -0.4380 h1         1 8SL       0.085200
     50 H25         11.9300    -2.0130    -1.9370 ha         1 8SL       0.141500
     51 O25         13.2440    -0.6070    -3.7150 os         1 8SL      -0.327900
@<TRIPOS>BOND
     1    51     9 1   
     2    51     7 1   
     3     6     7 ar  
     4     6     5 ar  
     5     7    25 ar  
     6     5    24 ar  
     7    25     8 ar  
     8    24     8 ar  
     9    24    23 1   
    10    11    10 1   
    11    11    12 2   
    12    10    14 2   
    13    18    17 1   
    14    23    15 1   
    15    17    16 1   
    16    17     1 1   
    17    12    16 1   
    18    12    13 1   
    19    14    15 1   
    20    14    13 1   
    21    13    19 1   
    22    19    20 1   
    23    20     2 ar  
    24    20     4 ar  
    25     2    21 ar  
    26     4    22 ar  
    27    21     3 ar  
    28    22     3 ar  
    29     1    26 1   
    30     1    27 1   
    31     1    28 1   
    32     2    29 1   
    33     3    30 1   
    34     4    31 1   
    35     5    32 1   
    36     6    33 1   
    37     8    34 1   
    38     9    35 1   
    39     9    36 1   
    40     9    37 1   
    41    16    38 1   
    42    16    39 1   
    43    17    40 1   
    44    18    41 1   
    45    18    42 1   
    46    18    43 1   
    47    19    44 1   
    48    19    45 1   
    49    21    46 1   
    50    22    47 1   
    51    23    48 1   
    52    23    49 1   
    53    25    50 1   
@<TRIPOS>SUBSTRUCTURE
     1 8SL         1 TEMP              0 ****  ****    0 ROOT
