@<TRIPOS>MOLECULE
molecule
   29    31     1     0     0
SMALL
bcc


@<TRIPOS>ATOM
      1 N1           0.0000     0.0000     0.0000 na         1 8SM       0.079400
      2 N3           1.4000     0.0000     0.0000 nc         1 8SM      -0.519800
      3 C4           0.6820     0.0000     3.5650 ca         1 8SM       0.521800
      4 C5          -0.5190    -0.1320     4.2600 ca         1 8SM      -0.254300
      5 C6          -0.4990    -0.1310     5.6420 ca         1 8SM      -0.087000
      6 C7           0.7230     0.0040     6.2880 ca         1 8SM      -0.265300
      7 C8           1.8750     0.1320     5.5370 ca         1 8SM       0.430200
      8 C10          4.1450     0.7950     1.1670 cc         1 8SM      -0.120300
      9 C13          3.6790    -0.7940     2.6430 cc         1 8SM      -0.120300
     10 C1          -0.8570    -0.0060    -1.1880 c3         1 8SM       0.064600
     11 C2          -0.4250     0.0010     1.2780 cc         1 8SM      -0.084300
     12 C3           0.6780     0.0010     2.0830 cd         1 8SM      -0.366800
     13 N2           1.8280     0.1330     4.2190 nb         1 8SM      -0.684000
     14 C9           1.8150     0.0000     1.2430 cd         1 8SM       0.476800
     15 N4           3.1520    -0.0000     1.6650 na         1 8SM      -0.057900
     16 C11          5.2870     0.5040     1.8240 cd         1 8SM      -0.211500
     17 C12          4.9890    -0.5010     2.7650 cd         1 8SM      -0.211500
     18 H1          -1.4550    -0.2360     3.7250 ha         1 8SM       0.131000
     19 H2          -1.4160    -0.2320     6.2090 ha         1 8SM       0.136000
     20 H3           0.7720     0.0070     7.3700 ha         1 8SM       0.138000
     21 H4           2.8300     0.2400     6.0380 h4         1 8SM       0.027100
     22 H6           3.1350    -1.5300     3.2240 h4         1 8SM       0.168500
     23 H7          -0.2410    -0.0040    -2.0790 h1         1 8SM       0.059367
     24 H8          -1.4870     0.8760    -1.1840 h1         1 8SM       0.059367
     25 H9          -1.4790    -0.8930    -1.1810 h1         1 8SM       0.059367
     26 H10         -1.4570     0.0010     1.6080 h4         1 8SM       0.176000
     27 H11          6.2540     0.9640     1.6610 ha         1 8SM       0.145000
     28 H12          5.6860    -0.9600     3.4560 ha         1 8SM       0.145000
     29 H5           4.0360     1.5300     0.3790 h4         1 8SM       0.168500
@<TRIPOS>BOND
     1    10     1 1   
     2     1    11 1   
     3     1     2 1   
     4    11    12 2   
     5     2    14 2   
     6    12     3 1   
     7    12    14 1   
     8    13     3 ar  
     9    13     7 ar  
    10     3     4 ar  
    11     7     6 ar  
    12    14    15 1   
    13     4     5 ar  
    14     6     5 ar  
    15    15     9 1   
    16    15     8 1   
    17     9    17 2   
    18     8    16 2   
    19    17    16 1   
    20     4    18 1   
    21     5    19 1   
    22     6    20 1   
    23     7    21 1   
    24     8    29 1   
    25     9    22 1   
    26    10    23 1   
    27    10    24 1   
    28    10    25 1   
    29    11    26 1   
    30    16    27 1   
    31    17    28 1   
@<TRIPOS>SUBSTRUCTURE
     1 8SM         1 TEMP              0 ****  ****    0 ROOT
