@<TRIPOS>MOLECULE
molecule
   35    37     1     0     0
SMALL
bcc


@<TRIPOS>ATOM
      1 N2           0.0000     0.0000     0.0000 n7         1 8SN      -0.759200
      2 C22          1.4830     0.0000     0.0000 c3         1 8SN       0.150800
      3 C23          1.9400     0.0000     1.4810 c3         1 8SN      -0.102400
      4 C8           0.6980     0.5520     2.2090 c3         1 8SN      -0.040500
      5 C21         -0.4380    -0.0540     1.3950 c3         1 8SN       0.127500
      6 C25         -1.7630     0.4690     1.7090 c          1 8SN       0.734500
      7 O7          -2.5150     0.6110     0.7680 o          1 8SN      -0.604500
      8 C7           0.6280     0.2350     3.6400 c2         1 8SN      -0.149200
      9 C6          -0.3640     0.1700     4.4170 c2         1 8SN      -0.164200
     10 C5          -1.8130     0.4160     4.2390 c3         1 8SN       0.150900
     11 C4          -2.2200     1.5900     5.1680 c3         1 8SN      -0.094700
     12 C3          -3.5040     2.1430     4.5180 c3         1 8SN      -0.070400
     13 C2          -3.4570     1.6540     3.0640 c3         1 8SN       0.005700
     14 N1          -2.2510     0.8110     2.9030 n          1 8SN      -0.470800
     15 C1          -3.3830     2.8350     2.1310 c          1 8SN       0.890600
     16 O2          -2.4270     2.9700     1.4030 o          1 8SN      -0.831800
     17 C47         -2.5090     1.0820     6.5810 c3         1 8SN      -0.085100
     18 O1          -4.3760     3.7360     2.1090 o          1 8SN      -0.831800
     19 H1          -0.3340    -0.8090    -0.4860 hn         1 8SN       0.350800
     20 H96          1.8510     0.8890    -0.4980 h1         1 8SN       0.034700
     21 H97          1.8510    -0.8890    -0.4980 h1         1 8SN       0.034700
     22 H23          2.7890     0.6570     1.6200 hc         1 8SN       0.038200
     23 H95          2.1630    -1.0070     1.8130 hc         1 8SN       0.038200
     24 H8           0.6750     1.6290     2.0910 hc         1 8SN       0.101700
     25 H21         -0.4690    -1.1050     1.6580 h1         1 8SN       0.003700
     26 H7           1.5830     0.0230     4.1050 ha         1 8SN       0.093000
     27 H6          -0.1000    -0.1280     5.4250 ha         1 8SN       0.096000
     28 H5          -2.3570    -0.4720     4.5380 h1         1 8SN       0.034700
     29 H41         -1.4460     2.3480     5.1800 hc         1 8SN       0.063700
     30 H32         -4.3360     1.6360     4.9920 hc         1 8SN       0.064200
     31 H31         -3.4000     3.2210     4.4890 hc         1 8SN       0.064200
     32 H22         -4.3420     1.0670     2.8490 h1         1 8SN       0.048700
     33 H47         -3.1430     0.2050     6.5270 hc         1 8SN       0.025033
     34 H93         -3.0130     1.8560     7.1480 hc         1 8SN       0.025033
     35 H94         -1.5780     0.8250     7.0710 hc         1 8SN       0.025033
@<TRIPOS>BOND
     1     2     3 1   
     2     2     1 1   
     3     3     4 1   
     4     1     5 1   
     5     4     5 1   
     6     4     8 1   
     7     5     6 1   
     8     8     9 2   
     9     7     6 2   
    10     6    14 1   
    11     9    10 1   
    12    14    10 1   
    13    14    13 1   
    14    10    11 1   
    15    16    15 1   
    16    13    15 1   
    17    13    12 1   
    18    15    18 1   
    19    11    12 1   
    20    11    17 1   
    21     1    19 1   
    22     2    20 1   
    23     2    21 1   
    24     3    22 1   
    25     3    23 1   
    26     4    24 1   
    27     5    25 1   
    28     8    26 1   
    29     9    27 1   
    30    10    28 1   
    31    11    29 1   
    32    12    30 1   
    33    12    31 1   
    34    13    32 1   
    35    17    33 1   
    36    17    34 1   
    37    17    35 1   
@<TRIPOS>SUBSTRUCTURE
     1 8SN         1 TEMP              0 ****  ****    0 ROOT
