@<TRIPOS>MOLECULE
8SO
   59    60     1     0     0
SMALL
bcc


@<TRIPOS>ATOM
      1 C4           0.0000     0.0000     0.0000 ca         1 8SO      -0.093500
      2 C5          -4.2620    -0.0250     0.0110 ca         1 8SO      -0.092000
      3 C6          -4.2550    -0.7640     2.2940 ca         1 8SO      -0.092000
      4 C7           1.3900     0.0110     2.3990 ca         1 8SO      -0.095000
      5 C8           1.3800     0.0000     0.0000 ca         1 8SO      -0.095000
      6 C10         -0.6940     0.0050     1.2080 cp         1 8SO      -0.034000
      7 C13          4.0890    -1.2540     0.4780 c3         1 8SO      -0.000100
      8 C15          6.5360     4.3310     1.9740 c3         1 8SO       0.020400
      9 C17         -6.4700    -0.5400     1.1410 c3         1 8SO       0.025900
     10 C20          3.5810     0.0010     1.1900 c3         1 8SO      -0.004400
     11 C21          6.0620     4.3040     0.5230 c3         1 8SO       0.020100
     12 C1          -2.8820    -0.0010     0.0120 ca         1 8SO      -0.095000
     13 C2          -2.8700    -0.7400     2.2950 ca         1 8SO      -0.095000
     14 C3           0.0100     0.0100     2.4100 ca         1 8SO      -0.093500
     15 C9          -2.1830    -0.3590     1.1530 cp         1 8SO      -0.027000
     16 C11         -4.9490    -0.4070     1.1520 ca         1 8SO      -0.099300
     17 C12          2.0750     0.0000     1.1970 ca         1 8SO      -0.089300
     18 C14          6.8750     5.3040    -0.2970 c3         1 8SO       0.020400
     19 C16         -9.1560     3.4440     1.1820 c3         1 8SO       0.068700
     20 C18         -7.1020     0.8010     1.5110 c3         1 8SO       0.222800
     21 C19          4.0870     1.2450     0.4560 c3         1 8SO       0.225800
     22 N22         -8.5430     0.6480     1.6010 n7         1 8SO      -0.551100
     23 N23          5.4730     1.4870     0.8130 n7         1 8SO      -0.543100
     24 O24         -9.4350     2.2160     3.5880 o          1 8SO      -0.548300
     25 O25        -10.9060     1.5380     2.0060 o          1 8SO      -0.548300
     26 O26          6.1470     2.5040    -1.5090 o          1 8SO      -0.547800
     27 O27          7.8270     2.3080    -0.0040 o          1 8SO      -0.547800
     28 S28         -9.5070     1.9480     2.1500 s6         1 8SO       0.781900
     29 S29          6.3970     2.6200    -0.0710 s6         1 8SO       0.782900
     30 H1          -0.5420    -0.0000    -0.9380 ha         1 8SO       0.112000
     31 H2          -4.8080     0.2540    -0.8820 ha         1 8SO       0.107500
     32 H3          -4.7920    -1.0620     3.1860 ha         1 8SO       0.107500
     33 H4           1.9390     0.0150     3.3320 ha         1 8SO       0.109500
     34 H5           1.9220    -0.0040    -0.9380 ha         1 8SO       0.109500
     35 H6           3.3020    -1.9980     0.4510 hc         1 8SO       0.012367
     36 H7           4.9430    -1.6520     1.0140 hc         1 8SO       0.012367
     37 H8           4.3830    -1.0020    -0.5330 hc         1 8SO       0.012367
     38 H9           7.4540     3.7640     2.0650 hc         1 8SO       0.018200
     39 H10          5.7760     3.8930     2.6100 hc         1 8SO       0.018200
     40 H11          6.7130     5.3560     2.2770 hc         1 8SO       0.018200
     41 H12         -6.8000    -0.8340     0.1510 hc         1 8SO       0.025200
     42 H13         -6.7720    -1.2920     1.8600 hc         1 8SO       0.025200
     43 H14          3.9460     0.0110     2.2100 hc         1 8SO       0.030700
     44 H15          5.0190     4.5970     0.4930 h1         1 8SO       0.070700
     45 H16         -2.3450     0.2970    -0.8810 ha         1 8SO       0.112500
     46 H17         -2.3240    -1.0200     3.1870 ha         1 8SO       0.112500
     47 H18         -0.5240     0.0190     3.3530 ha         1 8SO       0.112000
     48 H19          6.7200     6.3030     0.0950 hc         1 8SO       0.018200
     49 H20          6.5540     5.2690    -1.3310 hc         1 8SO       0.018200
     50 H21          7.9260     5.0510    -0.2360 hc         1 8SO       0.018200
     51 H22         -9.8930     4.2040     1.4110 h1         1 8SO       0.061700
     52 H23         -9.1970     3.2090     0.1250 h1         1 8SO       0.061700
     53 H24         -8.1680     3.8120     1.4310 h1         1 8SO       0.061700
     54 H25         -6.7140     1.1310     2.4670 h1         1 8SO       0.006200
     55 H26         -6.8630     1.5350     0.7510 h1         1 8SO       0.006200
     56 H27          4.0120     1.0890    -0.6130 h1         1 8SO       0.017200
     57 H28          3.4860     2.1010     0.7390 h1         1 8SO       0.017200
     58 H29         -8.9710    -0.2200     1.3460 hn         1 8SO       0.359800
     59 H30          5.8930     0.9760     1.5640 hn         1 8SO       0.347800
@<TRIPOS>BOND
     1     1     5 ar  
     2     1     6 ar  
     3     1    30 1   
     4     2    12 ar  
     5     2    16 ar  
     6     2    31 1   
     7     3    13 ar  
     8     3    16 ar  
     9     3    32 1   
    10     4    14 ar  
    11     4    17 ar  
    12     4    33 1   
    13     5    17 ar  
    14     5    34 1   
    15     6    14 ar  
    16     6    15 1   
    17     7    10 1   
    18     7    35 1   
    19     7    36 1   
    20     7    37 1   
    21     8    11 1   
    22     8    38 1   
    23     8    39 1   
    24     8    40 1   
    25     9    16 1   
    26     9    20 1   
    27     9    41 1   
    28     9    42 1   
    29    10    17 1   
    30    10    21 1   
    31    10    43 1   
    32    11    18 1   
    33    11    29 1   
    34    11    44 1   
    35    12    15 ar  
    36    12    45 1   
    37    13    15 ar  
    38    13    46 1   
    39    14    47 1   
    40    18    48 1   
    41    18    49 1   
    42    18    50 1   
    43    19    28 1   
    44    19    51 1   
    45    19    52 1   
    46    19    53 1   
    47    20    22 1   
    48    20    54 1   
    49    20    55 1   
    50    21    23 1   
    51    21    56 1   
    52    21    57 1   
    53    22    28 1   
    54    22    58 1   
    55    23    29 1   
    56    23    59 1   
    57    24    28 2   
    58    25    28 2   
    59    26    29 2   
    60    27    29 2   
@<TRIPOS>SUBSTRUCTURE
     1 8SO         1 TEMP              0 ****  ****    0 ROOT
