@<TRIPOS>MOLECULE
molecule
   59    60     1     0     0
SMALL
bcc


@<TRIPOS>ATOM
      1 C4           0.0000     0.0000     0.0000 ca         1 8SO      -0.114500
      2 C5          -4.2620    -0.0250     0.0110 ca         1 8SO      -0.120500
      3 C6          -4.2550    -0.7640     2.2940 ca         1 8SO      -0.120500
      4 C7           1.3900     0.0110     2.3990 ca         1 8SO      -0.122500
      5 C8           1.3800     0.0000     0.0000 ca         1 8SO      -0.122500
      6 C10         -0.6940     0.0050     1.2080 cp         1 8SO      -0.039000
      7 C13          4.0890    -1.2540     0.4780 c3         1 8SO      -0.089100
      8 C15          6.5360     4.3310     1.9740 c3         1 8SO      -0.081100
      9 C17         -6.4700    -0.5400     1.1410 c3         1 8SO      -0.039100
     10 C20          3.5810     0.0010     1.1900 c3         1 8SO      -0.033400
     11 C21          6.0620     4.3040     0.5230 c3         1 8SO      -0.162900
     12 C1          -2.8820    -0.0010     0.0120 ca         1 8SO      -0.116000
     13 C2          -2.8700    -0.7400     2.2950 ca         1 8SO      -0.116000
     14 C3           0.0100     0.0100     2.4100 ca         1 8SO      -0.114500
     15 C9          -2.1830    -0.3590     1.1530 cp         1 8SO      -0.032000
     16 C11         -4.9490    -0.4070     1.1520 ca         1 8SO      -0.093300
     17 C12          2.0750     0.0000     1.1970 ca         1 8SO      -0.082300
     18 C14          6.8750     5.3040    -0.2970 c3         1 8SO      -0.081100
     19 C16         -9.1560     3.4440     1.1820 c3         1 8SO      -0.196300
     20 C18         -7.1020     0.8010     1.5110 c3         1 8SO       0.229800
     21 C19          4.0870     1.2450     0.4560 c3         1 8SO       0.239800
     22 N22         -8.5430     0.6480     1.6010 n7         1 8SO      -0.879100
     23 N23          5.4730     1.4870     0.8130 n7         1 8SO      -0.876100
     24 O24         -9.4350     2.2160     3.5880 o          1 8SO      -0.579800
     25 O25        -10.9060     1.5380     2.0060 o          1 8SO      -0.579800
     26 O26          6.1470     2.5040    -1.5090 o          1 8SO      -0.582800
     27 O27          7.8270     2.3080    -0.0040 o          1 8SO      -0.582800
     28 S28         -9.5070     1.9480     2.1500 s6         1 8SO       1.135900
     29 S29          6.3970     2.6200    -0.0710 s6         1 8SO       1.140900
     30 H1          -0.5420    -0.0000    -0.9380 ha         1 8SO       0.135500
     31 H2          -4.8080     0.2540    -0.8820 ha         1 8SO       0.134500
     32 H3          -4.7920    -1.0620     3.1860 ha         1 8SO       0.134500
     33 H4           1.9390     0.0150     3.3320 ha         1 8SO       0.135000
     34 H5           1.9220    -0.0040    -0.9380 ha         1 8SO       0.135000
     35 H6           3.3020    -1.9980     0.4510 hc         1 8SO       0.044367
     36 H7           4.9430    -1.6520     1.0140 hc         1 8SO       0.044367
     37 H8           4.3830    -1.0020    -0.5330 hc         1 8SO       0.044367
     38 H9           7.4540     3.7640     2.0650 hc         1 8SO       0.053867
     39 H10          5.7760     3.8930     2.6100 hc         1 8SO       0.053867
     40 H11          6.7130     5.3560     2.2770 hc         1 8SO       0.053867
     41 H12         -6.8000    -0.8340     0.1510 hc         1 8SO       0.059200
     42 H13         -6.7720    -1.2920     1.8600 hc         1 8SO       0.059200
     43 H14          3.9460     0.0110     2.2100 hc         1 8SO       0.057700
     44 H15          5.0190     4.5970     0.4930 h1         1 8SO       0.101700
     45 H16         -2.3450     0.2970    -0.8810 ha         1 8SO       0.136500
     46 H17         -2.3240    -1.0200     3.1870 ha         1 8SO       0.136500
     47 H18         -0.5240     0.0190     3.3530 ha         1 8SO       0.135500
     48 H19          6.7200     6.3030     0.0950 hc         1 8SO       0.053867
     49 H20          6.5540     5.2690    -1.3310 hc         1 8SO       0.053867
     50 H21          7.9260     5.0510    -0.2360 hc         1 8SO       0.053867
     51 H22         -9.8930     4.2040     1.4110 h1         1 8SO       0.100367
     52 H23         -9.1970     3.2090     0.1250 h1         1 8SO       0.100367
     53 H24         -8.1680     3.8120     1.4310 h1         1 8SO       0.100367
     54 H25         -6.7140     1.1310     2.4670 h1         1 8SO       0.039200
     55 H26         -6.8630     1.5350     0.7510 h1         1 8SO       0.039200
     56 H27          4.0120     1.0890    -0.6130 h1         1 8SO       0.047200
     57 H28          3.4860     2.1010     0.7390 h1         1 8SO       0.047200
     58 H29         -8.9710    -0.2200     1.3460 hn         1 8SO       0.464800
     59 H30          5.8930     0.9760     1.5640 hn         1 8SO       0.451800
@<TRIPOS>BOND
     1     7    10 1
     2    13     3 ar
     3    13    15 ar
     4     3    16 ar
     5    14     4 ar
     6    14     6 ar
     7     4    17 ar
     8    15     6 1
     9    15    12 ar
    10     6     1 ar
    11    16     9 1
    12    16     2 ar
    13     9    20 1
    14    17    10 1
    15    17     5 ar
    16     1     5 ar
    17    10    21 1
    18    12     2 ar
    19    21    23 1
    20    20    22 1
    21    22    28 1
    22    23    29 1
    23    25    28 2
    24    27    29 2
    25    28    19 1
    26    28    24 2
    27    11    29 1
    28    11    18 1
    29    11     8 1
    30    29    26 2
    31     1    30 1
    32     2    31 1
    33     3    32 1
    34     4    33 1
    35     5    34 1
    36     7    35 1
    37     7    36 1
    38     7    37 1
    39     8    38 1
    40     8    39 1
    41     8    40 1
    42     9    41 1
    43     9    42 1
    44    10    43 1
    45    11    44 1
    46    12    45 1
    47    13    46 1
    48    14    47 1
    49    18    48 1
    50    18    49 1
    51    18    50 1
    52    19    51 1
    53    19    52 1
    54    19    53 1
    55    20    54 1
    56    20    55 1
    57    21    56 1
    58    21    57 1
    59    22    58 1
    60    23    59 1
@<TRIPOS>SUBSTRUCTURE
     1 8SO         1 TEMP              0 ****  ****    0 ROOT
