@<TRIPOS>MOLECULE
molecule
   29    30     1     0     0
SMALL
bcc


@<TRIPOS>ATOM
      1 C10          0.0000     0.0000     0.0000 ca         1 8SQ      -0.122000
      2 C13          0.3420    -1.4330     4.2380 c          1 8SQ       0.666100
      3 C01          2.0990    -0.0020    -1.2360 ca         1 8SQ      -0.035000
      4 C02          1.4040     0.0000     0.0000 ca         1 8SQ      -0.031000
      5 C03          2.1360     0.0000     1.1990 ca         1 8SQ      -0.079300
      6 C04          3.4960    -0.0010     1.1600 ca         1 8SQ      -0.121000
      7 C05          4.1780    -0.0010    -0.0550 ca         1 8SQ      -0.125000
      8 C06          3.5050    -0.0020    -1.2370 ca         1 8SQ      -0.116000
      9 C07          1.3690    -0.0010    -2.4370 ca         1 8SQ      -0.115000
     10 C08          0.0090    -0.0130    -2.3970 ca         1 8SQ      -0.126000
     11 C09         -0.6740    -0.0050    -1.1820 ca         1 8SQ      -0.124000
     12 C11          1.4160     0.0020     2.5240 c3         1 8SQ      -0.020100
     13 C12          1.0610    -1.4350     2.9130 c3         1 8SQ      -0.146400
     14 N01         -0.0700    -2.5950     4.7820 ns         1 8SQ      -0.475400
     15 O01          0.1340    -0.3860     4.8130 o          1 8SQ      -0.575100
     16 O02         -0.7460    -2.5940     6.0270 oh         1 8SQ      -0.363100
     17 H1          -0.5440     0.0060     0.9370 ha         1 8SQ       0.138000
     18 H2           4.0570    -0.0000     2.0870 ha         1 8SQ       0.131000
     19 H3           5.2620    -0.0020    -0.0590 ha         1 8SQ       0.129000
     20 H4           4.0480    -0.0020    -2.1740 ha         1 8SQ       0.133000
     21 H5           1.8860    -0.0080    -3.3890 ha         1 8SQ       0.133000
     22 H6          -0.5520    -0.0180    -3.3240 ha         1 8SQ       0.129000
     23 H7          -1.7580    -0.0150    -1.1790 ha         1 8SQ       0.129000
     24 H8           2.0580     0.4330     3.2830 hc         1 8SQ       0.069700
     25 H9           0.5090     0.5880     2.4420 hc         1 8SQ       0.069700
     26 H10          0.4200    -1.8660     2.1540 hc         1 8SQ       0.065200
     27 H11          1.9680    -2.0220     2.9950 hc         1 8SQ       0.065200
     28 H12          0.1040    -3.4590     4.3080 hn         1 8SQ       0.318500
     29 H13         -0.9720    -3.4790     6.2630 ho         1 8SQ       0.398000
@<TRIPOS>BOND
     1    10     9 ar
     2    10    11 ar
     3     9     3 ar
     4    11     1 ar
     5     3     8 ar
     6     3     4 ar
     7     1     4 ar
     8     8     7 ar
     9     4     5 ar
    10     7     6 ar
    11     5     6 ar
    12     5    12 1
    13    12    13 1
    14    13     2 1
    15    14    16 1
    16    14     2 1
    17     2    15 2
    18     1    17 1
    19     6    18 1
    20     7    19 1
    21     8    20 1
    22     9    21 1
    23    10    22 1
    24    11    23 1
    25    12    24 1
    26    12    25 1
    27    13    26 1
    28    13    27 1
    29    14    28 1
    30    16    29 1
@<TRIPOS>SUBSTRUCTURE
     1 8SQ         1 TEMP              0 ****  ****    0 ROOT
