@<TRIPOS>MOLECULE
molecule
   44    46     1     0     0
SMALL
bcc


@<TRIPOS>ATOM
      1 C4           0.0000     0.0000     0.0000 cc         1 8SR      -0.075400
      2 C5          -2.5640    -0.7480    -7.8400 cd         1 8SR       0.273600
      3 C6          -1.4680     1.0780    -7.1970 cc         1 8SR      -0.053600
      4 C7           0.9380    -0.0020    -2.3210 cc         1 8SR       0.102500
      5 C8           3.3310     0.0070    -1.6200 c          1 8SR       0.539700
      6 C10          2.1780     0.0000     1.2680 c3         1 8SR      -0.023100
      7 C13          0.0160    -0.4170     2.4430 c3         1 8SR      -0.079400
      8 C15          0.4800    -0.0070    -6.0460 c3         1 8SR       0.020300
      9 C1          -2.5730     0.6510    -7.8490 cd         1 8SR      -0.290300
     10 C2           1.8920     0.0010    -1.3410 cd         1 8SR      -0.348600
     11 C3           1.3390     0.0000     0.0000 cd         1 8SR      -0.065300
     12 C9           0.1900    -0.0060    -4.5670 c          1 8SR       0.625100
     13 C11         -0.8550    -0.0000     1.2540 c3         1 8SR      -0.001100
     14 C12          1.2950     0.4250     2.4440 c3         1 8SR      -0.075400
     15 C14         -1.0740     2.5140    -6.9630 c3         1 8SR      -0.033800
     16 C16         -3.6090    -1.6430    -8.4550 c3         1 8SR       0.617600
     17 N17         -1.4890    -1.1460    -7.2100 nc         1 8SR      -0.456800
     18 N18         -0.7820    -0.0100    -6.7920 na         1 8SR       0.067400
     19 N19          3.9970    -1.1590    -1.7480 nz         1 8SR      -0.684400
     20 N20          1.2040    -0.0030    -3.6820 ns         1 8SR      -0.450100
     21 O21          3.9250     1.0630    -1.7350 o          1 8SR      -0.395100
     22 O22         -0.9580    -0.0090    -4.1740 o          1 8SR      -0.520100
     23 F23         -3.2600    -1.9220    -9.7810 f          1 8SR      -0.208967
     24 F24         -3.6850    -2.8370    -7.7310 f          1 8SR      -0.208967
     25 F25         -4.8510    -0.9990    -8.4260 f          1 8SR      -0.208967
     26 S26         -0.6230    -0.0080    -1.6410 ss         1 8SR       0.171200
     27 H1           2.9980     0.6990     1.1590 hc         1 8SR       0.045700
     28 H2           2.5640    -0.9960     1.4460 hc         1 8SR       0.045700
     29 H3          -0.5280    -0.2500     3.3650 hc         1 8SR       0.058700
     30 H4           0.2730    -1.4660     2.3530 hc         1 8SR       0.058700
     31 H5           1.0490     0.8780    -6.3030 h1         1 8SR       0.092700
     32 H6           1.0530    -0.8910    -6.3020 h1         1 8SR       0.092700
     33 H7          -3.3020     1.2790    -8.3470 ha         1 8SR       0.181000
     34 H8          -1.2490     0.9940     1.4240 hc         1 8SR       0.071200
     35 H9          -1.6690    -0.7050     1.1360 hc         1 8SR       0.071200
     36 H10          1.8300     0.2670     3.3720 hc         1 8SR       0.062200
     37 H11          1.0380     1.4720     2.3420 hc         1 8SR       0.062200
     38 H12         -0.0760     2.6820    -7.3490 hc         1 8SR       0.058367
     39 H13         -1.0910     2.7240    -5.9000 hc         1 8SR       0.058367
     40 H14         -1.7730     3.1670    -7.4710 hc         1 8SR       0.058367
     41 H15          4.4800    -1.1720    -2.6240 hn         1 8SR       0.475467
     42 H16          3.3470    -1.9190    -1.7130 hn         1 8SR       0.475467
     43 H17          2.1510    -0.0140    -4.0050 hn         1 8SR       0.316500
     44 H193         4.6270    -1.2690    -0.9780 hn         1 8SR       0.475467
@<TRIPOS>BOND
     1    15     3 1
     2     8    12 1
     3     8    18 1
     4    21     5 2
     5    19     5 1
     6     5    10 1
     7    20    12 1
     8    20     4 1
     9    12    22 2
    10     3    18 1
    11     3     9 2
    12    18    17 1
    13     4    10 2
    14     4    26 1
    15    10    11 1
    16     9     2 1
    17    17     2 2
    18    11     6 1
    19    11     1 2
    20    26     1 1
    21     6    14 1
    22     2    16 1
    23     1    13 1
    24    24    16 1
    25     7    14 1
    26     7    13 1
    27    16    23 1
    28    16    25 1
    29     6    27 1
    30     6    28 1
    31     7    29 1
    32     7    30 1
    33     8    31 1
    34     8    32 1
    35     9    33 1
    36    13    34 1
    37    13    35 1
    38    14    36 1
    39    14    37 1
    40    15    38 1
    41    15    39 1
    42    15    40 1
    43    19    41 1
    44    19    42 1
    45    20    43 1
    46    44    19 1
@<TRIPOS>SUBSTRUCTURE
     1 8SR         1 TEMP              0 ****  ****    0 ROOT
