@<TRIPOS>MOLECULE
8SS
   21    22     1     0     0
SMALL
bcc


@<TRIPOS>ATOM
      1 N1           0.0000     0.0000     0.0000 na         1 8SS       0.462400
      2 N3           0.5900     0.0040     3.5130 nv         1 8SS      -0.529500
      3 C4           5.3850    -0.9290     1.6990 ca         1 8SS      -0.078500
      4 C5           4.0770    -0.9300     1.2570 ca         1 8SS      -0.106000
      5 C6           3.1720    -0.0040     1.7690 ca         1 8SS       0.040000
      6 C7           1.7640     0.0000     1.2990 cc         1 8SS      -0.324300
      7 C8           1.3480     0.0000     0.0000 cd         1 8SS      -0.227300
      8 C1           3.5910     0.9190     2.7260 ca         1 8SS      -0.106000
      9 C2           4.9010     0.9110     3.1600 ca         1 8SS      -0.078500
     10 C3           5.7970    -0.0110     2.6480 ca         1 8SS       0.026100
     11 N2          -0.4400     0.0060     1.3290 nd         1 8SS      -0.741800
     12 C9           0.6090     0.0040     2.1150 cc         1 8SS       0.512200
     13 Br1          7.5900    -0.0160     3.2500 br         1 8SS      -0.137100
     14 H1          -0.5860    -0.0000    -0.8110 hn         1 8SS       0.144700
     15 H2          -0.2660     0.1730     4.0020 hn         1 8SS       0.271800
     16 H3           1.4320    -0.1730     4.0250 hn         1 8SS       0.271800
     17 H5           3.7560    -1.6490     0.5140 ha         1 8SS       0.112500
     18 H6           1.9870    -0.0040    -0.8750 h4         1 8SS       0.144000
     19 H7           2.8900     1.6410     3.1270 ha         1 8SS       0.112500
     20 H8           5.2280     1.6280     3.9040 ha         1 8SS       0.115000
     21 H4           6.0910    -1.6480     1.3010 ha         1 8SS       0.115000
@<TRIPOS>BOND
     1     1     7 1   
     2     1    11 1   
     3     1    14 1   
     4     2    12 1   
     5     2    15 1   
     6     2    16 1   
     7     3     4 ar  
     8     3    10 ar  
     9     3    21 1   
    10     4     5 ar  
    11     4    17 1   
    12     5     6 1   
    13     5     8 ar  
    14     6     7 2   
    15     6    12 1   
    16     7    18 1   
    17     8     9 ar  
    18     8    19 1   
    19     9    10 ar  
    20     9    20 1   
    21    10    13 1   
    22    11    12 2   
@<TRIPOS>SUBSTRUCTURE
     1 8SS         1 TEMP              0 ****  ****    0 ROOT
