@<TRIPOS>MOLECULE
molecule
   40    42     1     0     0
SMALL
bcc


@<TRIPOS>ATOM
      1 Cl16         0.0000     0.0000     0.0000 cl         1 8ST      -0.112400
      2 C13          1.7360     0.0000     0.0000 ca         1 8ST       0.010400
      3 C12          2.4270     0.0000     1.1990 ca         1 8ST      -0.103500
      4 C11          3.8080     0.0010     1.2030 ca         1 8ST      -0.138500
      5 C14          2.4260    -0.0060    -1.1990 ca         1 8ST      -0.103500
      6 C15          3.8080    -0.0070    -1.2020 ca         1 8ST      -0.138500
      7 C10          4.5040     0.0000     0.0000 ca         1 8ST       0.059600
      8 N9           5.9020     0.0000     0.0000 ns         1 8ST      -0.471100
      9 C7           6.5760     0.6370    -0.9770 c          1 8ST       0.699700
     10 O8           5.9720     1.2910    -1.8060 o          1 8ST      -0.626100
     11 C2           8.0460     0.5430    -1.0430 ca         1 8ST      -0.251600
     12 C3           8.7620     1.3050    -1.9770 ca         1 8ST       0.267600
     13 C4          10.1470     1.2070    -2.0290 ca         1 8ST      -0.228000
     14 C5          10.8120     0.3640    -1.1630 ca         1 8ST      -0.049000
     15 C6          10.1080    -0.3920    -0.2390 ca         1 8ST      -0.202000
     16 C1           8.7350    -0.3040    -0.1700 ca         1 8ST      -0.052000
     17 N17          8.0900     2.1540    -2.8480 nu         1 8ST      -0.808600
     18 C18          8.8450     3.0440    -3.7330 c3         1 8ST       0.275100
     19 C19          7.8870     3.8530    -4.5690 ca         1 8ST      -0.074300
     20 C24          7.4480     3.3850    -5.7970 ca         1 8ST      -0.236300
     21 C23          6.5700     4.1540    -6.5360 ca         1 8ST       0.418700
     22 N22          6.1510     5.3210    -6.0850 nb         1 8ST      -0.684000
     23 C21          6.5470     5.7970    -4.9210 ca         1 8ST       0.418700
     24 C20          7.4210     5.0810    -4.1240 ca         1 8ST      -0.236300
     25 H12          1.8840     0.0010     2.1370 ha         1 8ST       0.146500
     26 H11          4.3480     0.0030     2.1420 ha         1 8ST       0.151000
     27 H14          1.8830    -0.0110    -2.1360 ha         1 8ST       0.146500
     28 H15          4.3480    -0.0090    -2.1410 ha         1 8ST       0.151000
     29 HN9          6.4020    -0.4620     0.7340 hn         1 8ST       0.330500
     30 H4          10.7050     1.7940    -2.7480 ha         1 8ST       0.138000
     31 H5          11.8920     0.2890    -1.2080 ha         1 8ST       0.131000
     32 H6          10.6400    -1.0500     0.4370 ha         1 8ST       0.132000
     33 H1           8.1890    -0.8960     0.5550 ha         1 8ST       0.121000
     34 HN17         7.0900     2.1390    -2.8880 hn         1 8ST       0.491800
     35 H18          9.4570     3.7110    -3.1370 h1         1 8ST       0.046200
     36 H18A         9.4810     2.4530    -4.3820 h1         1 8ST       0.046200
     37 H24          7.7880     2.4280    -6.1730 ha         1 8ST       0.142500
     38 H23          6.2220     3.7960    -7.4970 h4         1 8ST       0.025100
     39 H21          6.1800     6.7580    -4.5830 h4         1 8ST       0.025100
     40 H20          7.7430     5.4780    -3.1690 ha         1 8ST       0.142500
@<TRIPOS>BOND
     1     1     2 1
     2     2     5 ar
     3     2     3 ar
     4     3     4 ar
     5     3    25 1
     6     4     7 ar
     7     4    26 1
     8     5     6 ar
     9     5    27 1
    10     6     7 ar
    11     6    28 1
    12     7     8 1
    13     9     8 1
    14     8    29 1
    15    10     9 2
    16     9    11 1
    17    11    12 ar
    18    11    16 ar
    19    17    12 1
    20    12    13 ar
    21    13    14 ar
    22    13    30 1
    23    15    14 ar
    24    14    31 1
    25    16    15 ar
    26    15    32 1
    27    16    33 1
    28    18    17 1
    29    17    34 1
    30    18    19 1
    31    18    35 1
    32    18    36 1
    33    19    24 ar
    34    19    20 ar
    35    20    21 ar
    36    20    37 1
    37    21    22 ar
    38    21    38 1
    39    23    22 ar
    40    24    23 ar
    41    23    39 1
    42    24    40 1
@<TRIPOS>SUBSTRUCTURE
     1 8ST         1 TEMP              0 ****  ****    0 ROOT
