@<TRIPOS>MOLECULE
molecule
   29    30     1     0     0
SMALL
bcc


@<TRIPOS>ATOM
      1 N1           0.0000     0.0000     0.0000 nu         1 8SV      -0.808600
      2 N3          -2.5050     0.0000     4.9400 n          1 8SV      -0.358000
      3 C4          -0.7070     0.1010     3.6060 ca         1 8SV       0.083600
      4 C5          -2.0990    -0.0240     3.6050 ca         1 8SV      -0.060400
      5 C6          -2.7830    -0.1410     2.4050 ca         1 8SV      -0.027000
      6 C7          -2.0890    -0.1330     1.2120 ca         1 8SV      -0.235200
      7 C8          -3.8860    -0.1080     5.4170 c3         1 8SV       0.117300
      8 C1           1.4650     0.0000     0.0000 c3         1 8SV       0.223100
      9 C2          -0.7040    -0.0080     1.2090 ca         1 8SV       0.264600
     10 C3          -0.0130     0.1090     2.4070 ca         1 8SV      -0.227000
     11 O1          -3.9040     0.2820    -0.2060 o          1 8SV      -0.212000
     12 O2          -2.3390    -0.9000    -0.9850 o          1 8SV      -0.212000
     13 C9          -1.4110     0.1330     5.7130 c          1 8SV       0.805500
     14 N4          -0.3130     0.2020     4.9390 n          1 8SV      -0.358000
     15 O3          -1.4150     0.1850     6.9290 o          1 8SV      -0.652500
     16 H1          -0.5000     0.0450    -0.8660 hn         1 8SV       0.467800
     17 H2          -3.8620    -0.2390     2.4040 ha         1 8SV       0.162000
     18 H3          -4.4740     0.7050     5.0090 h1         1 8SV       0.055367
     19 H4          -4.3060    -1.0540     5.0960 h1         1 8SV       0.055367
     20 H5          -3.9000    -0.0550     6.4990 h1         1 8SV       0.055367
     21 H6           1.0760     0.3290     6.4980 h1         1 8SV       0.056700
     22 H7           1.4680     1.2930     5.0680 h1         1 8SV       0.056700
     23 H8           1.6680    -0.4640     5.0330 h1         1 8SV       0.056700
     24 H9           1.8260     0.9150     0.4540 h1         1 8SV       0.040700
     25 H10          1.8260    -0.8500     0.5660 h1         1 8SV       0.040700
     26 H11          1.8260    -0.0650    -1.0190 h1         1 8SV       0.040700
     27 H12          1.0550     0.2870     2.4000 ha         1 8SV       0.153000
     28 N2          -2.8200    -0.2580    -0.0690 no         1 8SV       0.303200
     29 C10          1.0650     0.3500     5.4150 c3         1 8SV       0.114300
@<TRIPOS>BOND
     1     8     1 1   
     2    12    28 1   
     3     1     9 1   
     4    28    11 1   
     5    28     6 1   
     6     9     6 ar  
     7     9    10 ar  
     8     6     5 ar  
     9    10     3 ar  
    10     5     4 ar  
    11     3     4 ar  
    12     3    14 1   
    13     4     2 1   
    14    14    29 1   
    15    14    13 1   
    16     2    13 1   
    17     2     7 1   
    18    13    15 2   
    19     1    16 1   
    20     5    17 1   
    21     7    18 1   
    22     7    19 1   
    23     7    20 1   
    24    29    21 1   
    25    29    22 1   
    26    29    23 1   
    27     8    24 1   
    28     8    25 1   
    29     8    26 1   
    30    10    27 1   
@<TRIPOS>SUBSTRUCTURE
     1 8SV         1 TEMP              0 ****  ****    0 ROOT
