@<TRIPOS>MOLECULE
8SW
   82    84     1     0     0
SMALL
bcc


@<TRIPOS>ATOM
      1 OAM          0.0000     0.0000     0.0000 oh         1 8SW      -0.463100
      2 CBS          1.3570     0.0000     0.0000 ca         1 8SW       0.179100
      3 CBP          2.0580     0.0000     1.2030 ca         1 8SW       0.061100
      4 OAJ          1.3810    -0.0010     2.3830 oh         1 8SW      -0.492100
      5 CAT          3.4410     0.0010     1.1980 ca         1 8SW      -0.105000
      6 CAQ          4.1370     0.0020    -0.0000 ca         1 8SW      -0.110000
      7 CAW          3.4590     0.0020    -1.1990 ca         1 8SW      -0.081000
      8 CBV          2.0600    -0.0040    -1.2110 ca         1 8SW      -0.173600
      9 CBK          1.3300    -0.0050    -2.4920 c          1 8SW       0.608700
     10 OAE          0.1140    -0.0110    -2.4990 o          1 8SW      -0.621100
     11 NBG          2.0100     0.0020    -3.6560 ns         1 8SW      -0.186900
     12 CBX          1.2850     0.0020    -4.9280 c3         1 8SW      -0.065300
     13 CBL          0.9350    -1.4140    -5.3070 c          1 8SW       0.565100
     14 OAF          1.2600    -2.3330    -4.5860 o          1 8SW      -0.637100
     15 NBB          0.2620    -1.6590    -6.4490 ns         1 8SW      -0.192900
     16 CAX         -0.0780    -3.0360    -6.8170 c3         1 8SW       0.188100
     17 CAN         -0.8070    -3.0370    -8.0960 c1         1 8SW      -0.201100
     18 CAA         -1.3730    -3.0500    -9.1240 c1         1 8SW      -0.081500
     19 CBA          2.1650     0.6180    -6.0170 c3         1 8SW       0.046000
     20 NBE          2.6030     1.9510    -5.5940 ns         1 8SW      -0.210900
     21 C            3.3930     2.6890    -6.4000 c          1 8SW       0.558100
     22 O            3.7410     2.2480    -7.4750 o          1 8SW      -0.595100
     23 CA           3.8430     4.0600    -5.9650 c3         1 8SW      -0.040300
     24 N            5.0270     4.4510    -6.7350 ns         1 8SW      -0.209900
     25 CBJ          4.9580     4.5420    -8.0770 c          1 8SW       0.606700
     26 OAD          3.9140     4.2980    -8.6510 o          1 8SW      -0.582100
     27 CBU          6.1500     4.9370    -8.8520 ca         1 8SW      -0.172600
     28 CAV          7.3520     5.2180    -8.1970 ca         1 8SW      -0.084000
     29 CAP          8.4630     5.5860    -8.9240 ca         1 8SW      -0.111000
     30 CAS          8.3970     5.6800   -10.3040 ca         1 8SW      -0.104000
     31 CBO          7.2130     5.4050   -10.9670 ca         1 8SW       0.057100
     32 OAI          7.1560     5.4990   -12.3230 oh         1 8SW      -0.494100
     33 CBR          6.0840     5.0270   -10.2480 ca         1 8SW       0.181100
     34 OAL          4.9210     4.7560   -10.8950 oh         1 8SW      -0.458100
     35 CB           2.7190     5.0670    -6.2100 c3         1 8SW       0.020000
     36 NBD          3.1960     6.4170    -5.9000 ns         1 8SW      -0.183900
     37 CBH          2.3720     7.4730    -6.0430 c          1 8SW       0.564100
     38 OAB          1.2330     7.3060    -6.4280 o          1 8SW      -0.648100
     39 CAY          2.8630     8.8610    -5.7240 c3         1 8SW      -0.014000
     40 NBC          1.7860     9.8260    -5.9580 ns         1 8SW      -0.195900
     41 CBI          1.9970    11.1390    -5.7380 c          1 8SW       0.597700
     42 OAC          3.0820    11.5230    -5.3440 o          1 8SW      -0.641100
     43 CBT          0.9130    12.1110    -5.9740 ca         1 8SW      -0.173600
     44 CAU         -0.3350    11.6750    -6.4270 ca         1 8SW      -0.078000
     45 CAO         -1.3460    12.5850    -6.6460 ca         1 8SW      -0.109000
     46 CAR         -1.1320    13.9350    -6.4200 ca         1 8SW      -0.107000
     47 CBN          0.0980    14.3830    -5.9720 ca         1 8SW       0.058100
     48 OAH          0.3000    15.7100    -5.7520 oh         1 8SW      -0.495100
     49 CBQ          1.1270    13.4750    -5.7410 ca         1 8SW       0.173100
     50 OAK          2.3350    13.9100    -5.3010 oh         1 8SW      -0.462100
     51 H1          -0.3140    -0.8320     0.3130 ho         1 8SW       0.415000
     52 H2           1.4390     0.8520     2.7800 ho         1 8SW       0.408000
     53 H3           3.9830     0.0010     2.1360 ha         1 8SW       0.113000
     54 H4           5.2200     0.0050     0.0060 ha         1 8SW       0.107000
     55 H5           4.0090     0.0010    -2.1320 ha         1 8SW       0.102000
     56 H6           3.0100    -0.0390    -3.6500 hn         1 8SW       0.183500
     57 H7           0.3760     0.5840    -4.8260 h1         1 8SW       0.073700
     58 H8          -0.0450    -0.8980    -7.0220 hn         1 8SW       0.182500
     59 H9           0.8300    -3.6170    -6.9190 h1         1 8SW       0.032700
     60 H10         -0.7020    -3.4730    -6.0460 h1         1 8SW       0.032700
     61 H11         -1.9110    -3.0690   -10.0640 ha         1 8SW       0.141500
     62 H12          3.0310    -0.0110    -6.1810 h1         1 8SW       0.036700
     63 H13          1.5980     0.6990    -6.9370 h1         1 8SW       0.036700
     64 H14          2.2930     2.3250    -4.7190 hn         1 8SW       0.181500
     65 H15          4.0890     4.0410    -4.9100 h1         1 8SW       0.030700
     66 H16          5.8940     4.6220    -6.2660 hn         1 8SW       0.178500
     67 H17          7.4100     5.1460    -7.1180 ha         1 8SW       0.099000
     68 H18          9.3940     5.8030    -8.4130 ha         1 8SW       0.107000
     69 H19          9.2750     5.9700   -10.8670 ha         1 8SW       0.113000
     70 H20          7.1600     6.4070   -12.5760 ho         1 8SW       0.409000
     71 H21          5.0370     4.0000   -11.4450 ho         1 8SW       0.414000
     72 H22          1.8750     4.8270    -5.5740 h1         1 8SW       0.056700
     73 H23          2.4130     5.0220    -7.2480 h1         1 8SW       0.056700
     74 H24          4.1230     6.5510    -5.5500 hn         1 8SW       0.171500
     75 H25          3.7070     9.1000    -6.3590 h1         1 8SW       0.036700
     76 H26          3.1680     8.9060    -4.6850 h1         1 8SW       0.036700
     77 H27          0.8930     9.5110    -6.2820 hn         1 8SW       0.208500
     78 H28         -0.5080    10.6200    -6.6060 ha         1 8SW       0.113000
     79 H29         -2.3120    12.2440    -6.9970 ha         1 8SW       0.109000
     80 H30         -1.9330    14.6440    -6.5950 ha         1 8SW       0.112000
     81 H31          0.3770    16.1570    -6.5780 ho         1 8SW       0.408000
     82 H32          2.2560    14.2100    -4.4100 ho         1 8SW       0.410000
@<TRIPOS>BOND
     1     1     2 1   
     2     1    51 1   
     3     2     3 ar  
     4     2     8 ar  
     5     3     4 1   
     6     3     5 ar  
     7     4    52 1   
     8     5     6 ar  
     9     5    53 1   
    10     6     7 ar  
    11     6    54 1   
    12     7     8 ar  
    13     7    55 1   
    14     8     9 1   
    15     9    10 2   
    16     9    11 1   
    17    11    12 1   
    18    11    56 1   
    19    12    13 1   
    20    12    19 1   
    21    12    57 1   
    22    13    14 2   
    23    13    15 1   
    24    15    16 1   
    25    15    58 1   
    26    16    17 1   
    27    16    59 1   
    28    16    60 1   
    29    17    18 3   
    30    18    61 1   
    31    19    20 1   
    32    19    62 1   
    33    19    63 1   
    34    20    21 1   
    35    20    64 1   
    36    21    22 2   
    37    21    23 1   
    38    23    24 1   
    39    23    35 1   
    40    23    65 1   
    41    24    25 1   
    42    24    66 1   
    43    25    26 2   
    44    25    27 1   
    45    27    28 ar  
    46    27    33 ar  
    47    28    29 ar  
    48    28    67 1   
    49    29    30 ar  
    50    29    68 1   
    51    30    31 ar  
    52    30    69 1   
    53    31    32 1   
    54    31    33 ar  
    55    32    70 1   
    56    33    34 1   
    57    34    71 1   
    58    35    36 1   
    59    35    72 1   
    60    35    73 1   
    61    36    37 1   
    62    36    74 1   
    63    37    38 2   
    64    37    39 1   
    65    39    40 1   
    66    39    75 1   
    67    39    76 1   
    68    40    41 1   
    69    40    77 1   
    70    41    42 2   
    71    41    43 1   
    72    43    44 ar  
    73    43    49 ar  
    74    44    45 ar  
    75    44    78 1   
    76    45    46 ar  
    77    45    79 1   
    78    46    47 ar  
    79    46    80 1   
    80    47    48 1   
    81    47    49 ar  
    82    48    81 1   
    83    49    50 1   
    84    50    82 1   
@<TRIPOS>SUBSTRUCTURE
     1 8SW         1 TEMP              0 ****  ****    0 ROOT
