@<TRIPOS>MOLECULE
8SY
   25    26     1     0     0
SMALL
bcc


@<TRIPOS>ATOM
      1 N1           0.0000     0.0000     0.0000 n          1 8SY       0.025000
      2 C4           1.3340     0.0020    -2.5060 c3         1 8SY       0.035900
      3 C5           2.0920     0.0010    -1.2040 ca         1 8SY      -0.074300
      4 C6           3.4730     0.0010    -1.2080 ca         1 8SY      -0.157000
      5 C7           4.1700     0.0020    -0.0060 ca         1 8SY       0.040600
      6 C8           3.4780     0.0000     1.1980 ca         1 8SY      -0.161000
      7 C10          1.4000     0.0000     0.0000 ca         1 8SY      -0.126400
      8 C1          -0.7290     0.4080     1.2040 c3         1 8SY       0.052300
      9 C2          -0.6820    -0.3670    -1.1010 c          1 8SY       0.609500
     10 C3           0.0430    -0.8030    -2.3460 c3         1 8SY      -0.094400
     11 C9           2.0970     0.0000     1.2010 ca         1 8SY      -0.086000
     12 N2           5.5690     0.0020    -0.0080 nv         1 8SY      -0.450200
     13 O1          -1.8950    -0.3480    -1.0900 o          1 8SY      -0.683500
     14 H1           1.0780     1.0240    -2.7600 hc         1 8SY       0.026700
     15 H2           1.9460    -0.4670    -3.2660 hc         1 8SY       0.026700
     16 H3           4.0130     0.0020    -2.1470 ha         1 8SY       0.112000
     17 H4           4.0210     0.0000     2.1350 ha         1 8SY       0.109000
     18 H5          -1.7870     0.4710     0.9820 h1         1 8SY       0.021367
     19 H6          -0.5670    -0.3220     1.9880 h1         1 8SY       0.021367
     20 H7          -0.3710     1.3760     1.5320 h1         1 8SY       0.021367
     21 H8           0.2980    -1.8520    -2.2500 hc         1 8SY       0.042200
     22 H9          -0.5930    -0.6140    -3.2020 hc         1 8SY       0.042200
     23 H10          1.5580    -0.0010     2.1400 ha         1 8SY       0.113000
     24 H11          6.0710    -0.1390     0.8460 hn         1 8SY       0.265800
     25 H12          6.0670     0.1430    -0.8640 hn         1 8SY       0.265800
@<TRIPOS>BOND
     1     1     7 1   
     2     1     8 1   
     3     1     9 1   
     4     2     3 1   
     5     2    10 1   
     6     2    14 1   
     7     2    15 1   
     8     3     4 ar  
     9     3     7 ar  
    10     4     5 ar  
    11     4    16 1   
    12     5     6 ar  
    13     5    12 1   
    14     6    11 ar  
    15     6    17 1   
    16     7    11 ar  
    17     8    18 1   
    18     8    19 1   
    19     8    20 1   
    20     9    10 1   
    21     9    13 2   
    22    10    21 1   
    23    10    22 1   
    24    11    23 1   
    25    12    24 1   
    26    12    25 1   
@<TRIPOS>SUBSTRUCTURE
     1 8SY         1 TEMP              0 ****  ****    0 ROOT
