@<TRIPOS>MOLECULE
molecule
   25    26     1     0     0
SMALL
bcc


@<TRIPOS>ATOM
      1 N1           0.0000     0.0000     0.0000 n          1 8SY      -0.373000
      2 C4           1.3340     0.0020    -2.5060 c3         1 8SY      -0.034100
      3 C5           2.0920     0.0010    -1.2040 ca         1 8SY      -0.078300
      4 C6           3.4730     0.0010    -1.2080 ca         1 8SY      -0.179000
      5 C7           4.1700     0.0020    -0.0060 ca         1 8SY       0.185600
      6 C8           3.4780     0.0000     1.1980 ca         1 8SY      -0.183000
      7 C10          1.4000     0.0000     0.0000 ca         1 8SY       0.016600
      8 C1          -0.7290     0.4080     1.2040 c3         1 8SY       0.089300
      9 C2          -0.6820    -0.3670    -1.1010 c          1 8SY       0.700500
     10 C3           0.0430    -0.8030    -2.3460 c3         1 8SY      -0.150400
     11 C9           2.0970     0.0000     1.2010 ca         1 8SY      -0.117000
     12 N2           5.5690     0.0020    -0.0080 nv         1 8SY      -0.925200
     13 O1          -1.8950    -0.3480    -1.0900 o          1 8SY      -0.641500
     14 H1           1.0780     1.0240    -2.7600 hc         1 8SY       0.060200
     15 H2           1.9460    -0.4670    -3.2660 hc         1 8SY       0.060200
     16 H3           4.0130     0.0020    -2.1470 ha         1 8SY       0.133000
     17 H4           4.0210     0.0000     2.1350 ha         1 8SY       0.132000
     18 H5          -1.7870     0.4710     0.9820 h1         1 8SY       0.050367
     19 H6          -0.5670    -0.3220     1.9880 h1         1 8SY       0.050367
     20 H7          -0.3710     1.3760     1.5320 h1         1 8SY       0.050367
     21 H8           0.2980    -1.8520    -2.2500 hc         1 8SY       0.078200
     22 H9          -0.5930    -0.6140    -3.2020 hc         1 8SY       0.078200
     23 H10          1.5580    -0.0010     2.1400 ha         1 8SY       0.137000
     24 H11          6.0710    -0.1390     0.8460 hn         1 8SY       0.429300
     25 H12          6.0670     0.1430    -0.8640 hn         1 8SY       0.429300
@<TRIPOS>BOND
     1    12     5 1   
     2     6     5 ar  
     3     6    11 ar  
     4     5     4 ar  
     5    11     7 ar  
     6     4     3 ar  
     7     7     3 ar  
     8     7     1 1   
     9     3     2 1   
    10     8     1 1   
    11     1     9 1   
    12     2    10 1   
    13     9    10 1   
    14     9    13 2   
    15     2    14 1   
    16     2    15 1   
    17     4    16 1   
    18     6    17 1   
    19     8    18 1   
    20     8    19 1   
    21     8    20 1   
    22    10    21 1   
    23    10    22 1   
    24    11    23 1   
    25    12    24 1   
    26    12    25 1   
@<TRIPOS>SUBSTRUCTURE
     1 8SY         1 TEMP              0 ****  ****    0 ROOT
