@<TRIPOS>MOLECULE
8SZ
   28    27     1     0     0
SMALL
bcc


@<TRIPOS>ATOM
      1 C10          0.0000     0.0000     0.0000 c3         1 8SZ      -0.047200
      2 O01         -4.9580     0.8610     4.8970 o          1 8SZ      -0.584100
      3 O02         -5.0900    -1.4470     6.2270 oh         1 8SZ      -0.405100
      4 N03         -4.5710     1.2550     2.2970 nz         1 8SZ       0.072400
      5 N04          1.4690     0.0000     0.0000 nz         1 8SZ       0.093400
      6 N05         -4.6180    -1.3310     4.8980 ns         1 8SZ       0.046600
      7 C06         -2.5520    -0.0010     2.8830 c3         1 8SZ      -0.030400
      8 C07         -2.0410    -0.0010     1.4410 c3         1 8SZ      -0.028400
      9 C08         -4.0820    -0.0010     2.8830 c3         1 8SZ      -0.152500
     10 C09         -0.5110     0.0000     1.4420 c3         1 8SZ      -0.028400
     11 C11         -4.5840    -0.1250     4.2980 c          1 8SZ       0.532100
     12 H1          -0.3610     0.8840    -0.5110 hx         1 8SZ       0.087700
     13 H2          -0.3610    -0.8840    -0.5110 hx         1 8SZ       0.087700
     14 H3          -5.0580    -2.3510     6.4950 ho         1 8SZ       0.428000
     15 H4          -3.8110     1.9000     2.2080 hn         1 8SZ       0.238467
     16 H5          -5.2750     1.6480     2.8910 hn         1 8SZ       0.238467
     17 H7           1.8030    -0.8170     0.4720 hn         1 8SZ       0.231800
     18 H8           1.8030     0.0000    -0.9440 hn         1 8SZ       0.231800
     19 H10         -4.2750    -2.1390     4.4170 hn         1 8SZ       0.157500
     20 H11         -2.1910    -0.8850     3.3940 hc         1 8SZ       0.061200
     21 H12         -2.1910     0.8840     3.3940 hc         1 8SZ       0.061200
     22 H13         -2.4010    -0.8850     0.9310 hc         1 8SZ       0.025200
     23 H14         -2.4020     0.8840     0.9300 hc         1 8SZ       0.025200
     24 H15         -4.4430    -0.8370     2.2970 hx         1 8SZ       0.095700
     25 H16         -0.1500     0.8850     1.9530 hc         1 8SZ       0.045200
     26 H17         -0.1490    -0.8840     1.9530 hc         1 8SZ       0.045200
     27 H033        -4.9600     1.0720     1.3930 hn         1 8SZ       0.238467
     28 H043         1.8030     0.8280     0.4530 hn         1 8SZ       0.231800
@<TRIPOS>BOND
     1     1     5 1   
     2     1    10 1   
     3     1    12 1   
     4     1    13 1   
     5     2    11 2   
     6     3     6 1   
     7     3    14 1   
     8     4     9 1   
     9     4    15 1   
    10     4    16 1   
    11     4    27 1   
    12     5    17 1   
    13     5    18 1   
    14     5    28 1   
    15     6    11 1   
    16     6    19 1   
    17     7     8 1   
    18     7     9 1   
    19     7    20 1   
    20     7    21 1   
    21     8    10 1   
    22     8    22 1   
    23     8    23 1   
    24     9    11 1   
    25     9    24 1   
    26    10    25 1   
    27    10    26 1   
@<TRIPOS>SUBSTRUCTURE
     1 8SZ         1 TEMP              0 ****  ****    0 ROOT
