@<TRIPOS>MOLECULE
molecule
   28    27     1     0     0
SMALL
bcc


@<TRIPOS>ATOM
      1 C10          0.0000     0.0000     0.0000 c3         1 8SZ       0.096800
      2 O01         -4.9580     0.8610     4.8970 o          1 8SZ      -0.537100
      3 O02         -5.0900    -1.4470     6.2270 oh         1 8SZ      -0.315100
      4 N03         -4.5710     1.2550     2.2970 nz         1 8SZ      -0.803600
      5 N04          1.4690     0.0000     0.0000 nz         1 8SZ      -0.809600
      6 N05         -4.6180    -1.3310     4.8980 ns         1 8SZ      -0.426400
      7 C06         -2.5520    -0.0010     2.8830 c3         1 8SZ      -0.105400
      8 C07         -2.0410    -0.0010     1.4410 c3         1 8SZ      -0.091400
      9 C08         -4.0820    -0.0010     2.8830 c3         1 8SZ       0.032500
     10 C09         -0.5110     0.0000     1.4420 c3         1 8SZ      -0.109400
     11 C11         -4.5840    -0.1250     4.2980 c          1 8SZ       0.648100
     12 H1          -0.3610     0.8840    -0.5110 hx         1 8SZ       0.116200
     13 H2          -0.3610    -0.8840    -0.5110 hx         1 8SZ       0.116200
     14 H3          -5.0580    -2.3510     6.4950 ho         1 8SZ       0.435000
     15 H4          -3.8110     1.9000     2.2080 hn         1 8SZ       0.470800
     16 H5          -5.2750     1.6480     2.8910 hn         1 8SZ       0.470800
     17 H7           1.8030    -0.8170     0.4720 hn         1 8SZ       0.468133
     18 H8           1.8030     0.0000    -0.9440 hn         1 8SZ       0.468133
     19 H10         -4.2750    -2.1390     4.4170 hn         1 8SZ       0.334500
     20 H11         -2.1910    -0.8850     3.3940 hc         1 8SZ       0.100700
     21 H12         -2.1910     0.8840     3.3940 hc         1 8SZ       0.100700
     22 H13         -2.4010    -0.8850     0.9310 hc         1 8SZ       0.057700
     23 H14         -2.4020     0.8840     0.9300 hc         1 8SZ       0.057700
     24 H15         -4.4430    -0.8370     2.2970 hx         1 8SZ       0.123700
     25 H16         -0.1500     0.8850     1.9530 hc         1 8SZ       0.080200
     26 H17         -0.1490    -0.8840     1.9530 hc         1 8SZ       0.080200
     27 H033        -4.9600     1.0720     1.3930 hn         1 8SZ       0.470800
     28 H043         1.8030     0.8280     0.4530 hn         1 8SZ       0.468133
@<TRIPOS>BOND
     1     5     1 1   
     2     1    10 1   
     3    10     8 1   
     4     7     8 1   
     5     7     9 1   
     6     6     3 1   
     7     6    11 1   
     8     4     9 1   
     9     9    11 1   
    10    11     2 2   
    11     1    12 1   
    12     1    13 1   
    13     3    14 1   
    14     4    15 1   
    15     4    16 1   
    16     5    17 1   
    17     5    18 1   
    18     6    19 1   
    19     7    20 1   
    20     7    21 1   
    21     8    22 1   
    22     8    23 1   
    23     9    24 1   
    24    10    25 1   
    25    10    26 1   
    26    27     4 1   
    27    28     5 1   
@<TRIPOS>SUBSTRUCTURE
     1 8SZ         1 TEMP              0 ****  ****    0 ROOT
