@<TRIPOS>MOLECULE
8T1
   23    24     1     0     0
SMALL
bcc


@<TRIPOS>ATOM
      1 N1           0.0000     0.0000     0.0000 n          1 8T1       0.084000
      2 C4           1.3120     0.0010    -2.4740 cc         1 8T1      -0.008200
      3 C5           2.0760     0.0010    -1.2250 ca         1 8T1      -0.123800
      4 C6           3.4730     0.0010    -1.2330 ca         1 8T1      -0.054000
      5 C7           4.1630     0.0010    -0.0350 ca         1 8T1      -0.005400
      6 C8           3.4690     0.0000     1.1750 ca         1 8T1      -0.060000
      7 C10          1.3800     0.0000     0.0000 ca         1 8T1      -0.060400
      8 C1          -0.7220    -0.0000     1.2740 c3         1 8T1       0.034300
      9 C2          -0.6920     0.0060    -1.1530 c          1 8T1       0.602700
     10 C3          -0.0420     0.0070    -2.4060 cd         1 8T1      -0.216200
     11 C9           2.0920     0.0000     1.1940 ca         1 8T1      -0.157000
     12 N2           5.5610     0.0010    -0.0360 nv         1 8T1      -0.557200
     13 O1          -1.9100     0.0110    -1.1160 o          1 8T1      -0.695500
     14 H1           1.8180     0.0020    -3.4320 ha         1 8T1       0.109000
     15 H2           4.0130     0.0020    -2.1720 ha         1 8T1       0.112000
     16 H3           4.0190     0.0000     2.1090 ha         1 8T1       0.108000
     17 H4          -1.7890    -0.0030     1.0850 h1         1 8T1       0.029033
     18 H5          -0.4540    -0.8830     1.8420 h1         1 8T1       0.029033
     19 H6          -0.4590     0.8860     1.8390 h1         1 8T1       0.029033
     20 H7          -0.6280     0.0120    -3.3170 ha         1 8T1       0.134000
     21 H8           1.5640    -0.0010     2.1400 ha         1 8T1       0.120000
     22 H9           6.0620    -0.8660    -0.0410 hn         1 8T1       0.272800
     23 H10          6.0620     0.8680    -0.0410 hn         1 8T1       0.272800
@<TRIPOS>BOND
     1     1     7 1   
     2     1     8 1   
     3     1     9 1   
     4     2     3 1   
     5     2    10 2   
     6     2    14 1   
     7     3     4 ar  
     8     3     7 ar  
     9     4     5 ar  
    10     4    15 1   
    11     5     6 ar  
    12     5    12 1   
    13     6    11 ar  
    14     6    16 1   
    15     7    11 ar  
    16     8    17 1   
    17     8    18 1   
    18     8    19 1   
    19     9    10 1   
    20     9    13 2   
    21    10    20 1   
    22    11    21 1   
    23    12    22 1   
    24    12    23 1   
@<TRIPOS>SUBSTRUCTURE
     1 8T1         1 TEMP              0 ****  ****    0 ROOT
