@<TRIPOS>MOLECULE
molecule
   23    24     1     0     0
SMALL
bcc


@<TRIPOS>ATOM
      1 N1           0.0000     0.0000     0.0000 n          1 8T1      -0.336000
      2 C4           1.3120     0.0010    -2.4740 cc         1 8T1      -0.039200
      3 C5           2.0760     0.0010    -1.2250 ca         1 8T1      -0.128800
      4 C6           3.4730     0.0010    -1.2330 ca         1 8T1      -0.089000
      5 C7           4.1630     0.0010    -0.0350 ca         1 8T1       0.127600
      6 C8           3.4690     0.0000     1.1750 ca         1 8T1      -0.094000
      7 C10          1.3800     0.0000     0.0000 ca         1 8T1       0.085600
      8 C1          -0.7220    -0.0000     1.2740 c3         1 8T1       0.078300
      9 C2          -0.6920     0.0060    -1.1530 c          1 8T1       0.695700
     10 C3          -0.0420     0.0070    -2.4060 cd         1 8T1      -0.238200
     11 C9           2.0920     0.0000     1.1940 ca         1 8T1      -0.178000
     12 N2           5.5610     0.0010    -0.0360 nv         1 8T1      -0.988200
     13 O1          -1.9100     0.0110    -1.1160 o          1 8T1      -0.650500
     14 H1           1.8180     0.0020    -3.4320 ha         1 8T1       0.141000
     15 H2           4.0130     0.0020    -2.1720 ha         1 8T1       0.142000
     16 H3           4.0190     0.0000     2.1090 ha         1 8T1       0.140000
     17 H4          -1.7890    -0.0030     1.0850 h1         1 8T1       0.056700
     18 H5          -0.4540    -0.8830     1.8420 h1         1 8T1       0.056700
     19 H6          -0.4590     0.8860     1.8390 h1         1 8T1       0.056700
     20 H7          -0.6280     0.0120    -3.3170 ha         1 8T1       0.164000
     21 H8           1.5640    -0.0010     2.1400 ha         1 8T1       0.140000
     22 H9           6.0620    -0.8660    -0.0410 hn         1 8T1       0.427800
     23 H10          6.0620     0.8680    -0.0410 hn         1 8T1       0.427800
@<TRIPOS>BOND
     1    12     5 1   
     2     5     6 ar  
     3     5     4 ar  
     4     6    11 ar  
     5     4     3 ar  
     6    11     7 ar  
     7     3     7 ar  
     8     3     2 1   
     9     7     1 1   
    10     2    10 2   
    11     1     8 1   
    12     1     9 1   
    13    10     9 1   
    14     9    13 2   
    15     2    14 1   
    16     4    15 1   
    17     6    16 1   
    18     8    17 1   
    19     8    18 1   
    20     8    19 1   
    21    10    20 1   
    22    11    21 1   
    23    12    22 1   
    24    12    23 1   
@<TRIPOS>SUBSTRUCTURE
     1 8T1         1 TEMP              0 ****  ****    0 ROOT
