@<TRIPOS>MOLECULE
molecule
   81    83     1     0     0
SMALL
bcc


@<TRIPOS>ATOM
      1 OAI          0.0000     0.0000     0.0000 oh         1 8T2      -0.484100
      2 CBN          1.3580     0.0000     0.0000 ca         1 8T2       0.157100
      3 CBK          2.0570     0.0000     1.2040 ca         1 8T2       0.055100
      4 OAF          1.3810    -0.0020     2.3830 oh         1 8T2      -0.515100
      5 CAO          3.4420     0.0010     1.1990 ca         1 8T2      -0.129000
      6 CAL          4.1370     0.0020     0.0020 ca         1 8T2      -0.136000
      7 CAR          3.4590     0.0020    -1.1970 ca         1 8T2      -0.102000
      8 CBQ          2.0610    -0.0050    -1.2090 ca         1 8T2      -0.156600
      9 CBG          1.3310    -0.0040    -2.4920 c          1 8T2       0.671700
     10 OAB          0.1150    -0.0100    -2.4990 o          1 8T2      -0.584100
     11 NBC          2.0110     0.0020    -3.6550 ns         1 8T2      -0.588900
     12 CAY          1.2870     0.0020    -4.9280 c3         1 8T2       0.114000
     13 CAV          2.2870     0.0100    -6.0850 c3         1 8T2      -0.100400
     14 CAW          1.5300     0.0100    -7.4140 c3         1 8T2      -0.076400
     15 CB           2.5310     0.0180    -8.5720 c3         1 8T2      -0.099400
     16 CA           1.7730     0.0180    -9.9010 c3         1 8T2       0.058700
     17 N            1.0310    -1.2370   -10.0410 ns         1 8T2      -0.580900
     18 CBH          1.6890    -2.4130   -10.0400 c          1 8T2       0.680700
     19 OAC          2.8990    -2.4330    -9.9250 o          1 8T2      -0.554100
     20 CBR          0.9410    -3.6780   -10.1800 ca         1 8T2      -0.151600
     21 CAS         -0.4510    -3.6600   -10.3120 ca         1 8T2      -0.103000
     22 CAM         -1.1460    -4.8410   -10.4430 ca         1 8T2      -0.137000
     23 CAP         -0.4730    -6.0520   -10.4440 ca         1 8T2      -0.129000
     24 CBL          0.9050    -6.0870   -10.3140 ca         1 8T2       0.051100
     25 OAG          1.5590    -7.2790   -10.3160 oh         1 8T2      -0.517100
     26 CBO          1.6220    -4.9000   -10.1860 ca         1 8T2       0.161100
     27 OAJ          2.9730    -4.9300   -10.0640 oh         1 8T2      -0.478100
     28 C            2.7540     0.1490   -11.0380 c          1 8T2       0.638100
     29 O            3.0940    -0.8330   -11.6630 o          1 8T2      -0.562100
     30 NBD          3.2520     1.3590   -11.3610 ns         1 8T2      -0.594900
     31 CAZ          4.2060     1.4870   -12.4650 c3         1 8T2       0.114000
     32 CAU          4.6130     2.9540   -12.6220 c3         1 8T2      -0.098400
     33 CAT          5.6090     3.0880   -13.7750 c3         1 8T2      -0.098400
     34 CAX          6.0150     4.5540   -13.9310 c3         1 8T2       0.115000
     35 NBB          6.9680     4.6830   -15.0350 ns         1 8T2      -0.589900
     36 CBF          7.4670     5.8920   -15.3590 c          1 8T2       0.672700
     37 OAA          7.1260     6.8770   -14.7330 o          1 8T2      -0.583100
     38 CBP          8.4280     6.0210   -16.4720 ca         1 8T2      -0.157600
     39 CAQ          8.8220     4.8910   -17.1930 ca         1 8T2      -0.102000
     40 CAK          9.7180     5.0160   -18.2320 ca         1 8T2      -0.136000
     41 CAN         10.2320     6.2570   -18.5670 ca         1 8T2      -0.128000
     42 CBJ          9.8510     7.3860   -17.8620 ca         1 8T2       0.055100
     43 OAE         10.3570     8.6020   -18.2000 oh         1 8T2      -0.515100
     44 CBM          8.9430     7.2770   -16.8140 ca         1 8T2       0.157100
     45 OAH          8.5670     8.3820   -16.1200 oh         1 8T2      -0.484100
     46 H1          -0.3140    -0.8330     0.3100 ho         1 8T2       0.433000
     47 H2           1.4340     0.8530     2.7770 ho         1 8T2       0.426000
     48 H3           3.9840     0.0010     2.1370 ha         1 8T2       0.143000
     49 H4           5.2210     0.0050     0.0080 ha         1 8T2       0.137000
     50 H5           4.0090     0.0010    -2.1310 ha         1 8T2       0.130000
     51 H6           3.0110     0.0060    -3.6490 hn         1 8T2       0.312500
     52 H7           0.6680    -0.8850    -4.9920 h1         1 8T2       0.053700
     53 H8           0.6600     0.8840    -4.9870 h1         1 8T2       0.053700
     54 H9           2.9140    -0.8710    -6.0260 hc         1 8T2       0.047700
     55 H10          2.9050     0.8980    -6.0220 hc         1 8T2       0.047700
     56 H11          0.9120    -0.8780    -7.4780 hc         1 8T2       0.045200
     57 H12          0.9030     0.8910    -7.4730 hc         1 8T2       0.045200
     58 H13          3.1580    -0.8630    -8.5130 hc         1 8T2       0.071200
     59 H14          3.1490     0.9060    -8.5090 hc         1 8T2       0.071200
     60 H15          1.0820     0.8510    -9.9230 h1         1 8T2       0.059700
     61 H16          0.0390    -1.2190   -10.1770 hn         1 8T2       0.315500
     62 H17         -0.9830    -2.7160   -10.3120 ha         1 8T2       0.128000
     63 H18         -2.2240    -4.8240   -10.5450 ha         1 8T2       0.137000
     64 H19         -1.0280    -6.9770   -10.5470 ha         1 8T2       0.142000
     65 H20          1.5720    -7.6290   -11.1920 ho         1 8T2       0.427000
     66 H21          3.2050    -5.3350    -9.2440 ho         1 8T2       0.430000
     67 H22          2.9490     2.1740   -10.8650 hn         1 8T2       0.308500
     68 H23          5.0850     0.8900   -12.2550 h1         1 8T2       0.055200
     69 H24          3.7450     1.1410   -13.3830 h1         1 8T2       0.055200
     70 H25          3.7340     3.5520   -12.8320 hc         1 8T2       0.048700
     71 H26          5.0740     3.3010   -11.7050 hc         1 8T2       0.048700
     72 H27          5.1470     2.7420   -14.6920 hc         1 8T2       0.049700
     73 H28          6.4870     2.4900   -13.5650 hc         1 8T2       0.049700
     74 H29          6.4760     4.9000   -13.0140 h1         1 8T2       0.054700
     75 H30          5.1360     5.1520   -14.1410 h1         1 8T2       0.054700
     76 H31          7.2480     3.8720   -15.5510 hn         1 8T2       0.312500
     77 H32          8.4230     3.9170   -16.9360 ha         1 8T2       0.130000
     78 H33         10.0210     4.1380   -18.7890 ha         1 8T2       0.138000
     79 H34         10.9360     6.3450   -19.3860 ha         1 8T2       0.143000
     80 H35         11.2520     8.6620   -17.9100 ho         1 8T2       0.427000
     81 H36          8.0280     8.9280   -16.6670 ho         1 8T2       0.433000
@<TRIPOS>BOND
     1     6     7 ar
     2     6     5 ar
     3     7     8 ar
     4    10     9 2
     5     5     3 ar
     6     8     9 1
     7     8     2 ar
     8     9    11 1
     9     3     2 ar
    10     3     4 1
    11    13    12 1
    12    13    14 1
    13     2     1 1
    14    11    12 1
    15    15    14 1
    16    15    16 1
    17    16    17 1
    18    16    28 1
    19    17    18 1
    20    27    26 1
    21    18    19 2
    22    18    20 1
    23    26    20 ar
    24    26    24 ar
    25    20    21 ar
    26    25    24 1
    27    24    23 ar
    28    29    28 2
    29    21    22 ar
    30    23    22 ar
    31    28    30 1
    32    43    42 1
    33    30    31 1
    34    45    44 1
    35    42    44 ar
    36    42    41 ar
    37    31    32 1
    38    44    38 ar
    39    41    40 ar
    40    32    33 1
    41    35    36 1
    42    35    34 1
    43    38    36 1
    44    38    39 ar
    45    40    39 ar
    46    33    34 1
    47    36    37 2
    48     1    46 1
    49     4    47 1
    50     5    48 1
    51     6    49 1
    52     7    50 1
    53    11    51 1
    54    12    52 1
    55    12    53 1
    56    13    54 1
    57    13    55 1
    58    14    56 1
    59    14    57 1
    60    15    58 1
    61    15    59 1
    62    16    60 1
    63    17    61 1
    64    21    62 1
    65    22    63 1
    66    23    64 1
    67    25    65 1
    68    27    66 1
    69    30    67 1
    70    31    68 1
    71    31    69 1
    72    32    70 1
    73    32    71 1
    74    33    72 1
    75    33    73 1
    76    34    74 1
    77    34    75 1
    78    35    76 1
    79    39    77 1
    80    40    78 1
    81    41    79 1
    82    43    80 1
    83    45    81 1
@<TRIPOS>SUBSTRUCTURE
     1 8T2         1 TEMP              0 ****  ****    0 ROOT
