@<TRIPOS>MOLECULE
8T2
   81    83     1     0     0
SMALL
bcc


@<TRIPOS>ATOM
      1 OAI          0.0000     0.0000     0.0000 oh         1 8T2      -0.461100
      2 CBN          1.3580     0.0000     0.0000 ca         1 8T2       0.174100
      3 CBK          2.0570     0.0000     1.2040 ca         1 8T2       0.061100
      4 OAF          1.3810    -0.0020     2.3830 oh         1 8T2      -0.493100
      5 CAO          3.4420     0.0010     1.1990 ca         1 8T2      -0.108000
      6 CAL          4.1370     0.0020     0.0020 ca         1 8T2      -0.109000
      7 CAR          3.4590     0.0020    -1.1970 ca         1 8T2      -0.083000
      8 CBQ          2.0610    -0.0050    -1.2090 ca         1 8T2      -0.173600
      9 CBG          1.3310    -0.0040    -2.4920 c          1 8T2       0.596700
     10 OAB          0.1150    -0.0100    -2.4990 o          1 8T2      -0.629100
     11 NBC          2.0110     0.0020    -3.6550 ns         1 8T2      -0.207900
     12 CAY          1.2870     0.0020    -4.9280 c3         1 8T2       0.052000
     13 CAV          2.2870     0.0100    -6.0850 c3         1 8T2      -0.041400
     14 CAW          1.5300     0.0100    -7.4140 c3         1 8T2      -0.021400
     15 CB           2.5310     0.0180    -8.5720 c3         1 8T2      -0.062400
     16 CA           1.7730     0.0180    -9.9010 c3         1 8T2      -0.027300
     17 N            1.0310    -1.2370   -10.0410 ns         1 8T2      -0.194900
     18 CBH          1.6890    -2.4130   -10.0400 c          1 8T2       0.605700
     19 OAC          2.8990    -2.4330    -9.9250 o          1 8T2      -0.593100
     20 CBR          0.9410    -3.6780   -10.1800 ca         1 8T2      -0.168600
     21 CAS         -0.4510    -3.6600   -10.3120 ca         1 8T2      -0.083000
     22 CAM         -1.1460    -4.8410   -10.4430 ca         1 8T2      -0.111000
     23 CAP         -0.4730    -6.0520   -10.4440 ca         1 8T2      -0.109000
     24 CBL          0.9050    -6.0870   -10.3140 ca         1 8T2       0.057100
     25 OAG          1.5590    -7.2790   -10.3160 oh         1 8T2      -0.495100
     26 CBO          1.6220    -4.9000   -10.1860 ca         1 8T2       0.176100
     27 OAJ          2.9730    -4.9300   -10.0640 oh         1 8T2      -0.455100
     28 C            2.7540     0.1490   -11.0380 c          1 8T2       0.549100
     29 O            3.0940    -0.8330   -11.6630 o          1 8T2      -0.600100
     30 NBD          3.2520     1.3590   -11.3610 ns         1 8T2      -0.206900
     31 CAZ          4.2060     1.4870   -12.4650 c3         1 8T2       0.051000
     32 CAU          4.6130     2.9540   -12.6220 c3         1 8T2      -0.036400
     33 CAT          5.6090     3.0880   -13.7750 c3         1 8T2      -0.036400
     34 CAX          6.0150     4.5540   -13.9310 c3         1 8T2       0.052000
     35 NBB          6.9680     4.6830   -15.0350 ns         1 8T2      -0.209900
     36 CBF          7.4670     5.8920   -15.3590 c          1 8T2       0.597700
     37 OAA          7.1260     6.8770   -14.7330 o          1 8T2      -0.628100
     38 CBP          8.4280     6.0210   -16.4720 ca         1 8T2      -0.173600
     39 CAQ          8.8220     4.8910   -17.1930 ca         1 8T2      -0.083000
     40 CAK          9.7180     5.0160   -18.2320 ca         1 8T2      -0.109000
     41 CAN         10.2320     6.2570   -18.5670 ca         1 8T2      -0.107000
     42 CBJ          9.8510     7.3860   -17.8620 ca         1 8T2       0.061100
     43 OAE         10.3570     8.6020   -18.2000 oh         1 8T2      -0.494100
     44 CBM          8.9430     7.2770   -16.8140 ca         1 8T2       0.174100
     45 OAH          8.5670     8.3820   -16.1200 oh         1 8T2      -0.461100
     46 H1          -0.3140    -0.8330     0.3100 ho         1 8T2       0.411000
     47 H2           1.4340     0.8530     2.7770 ho         1 8T2       0.409000
     48 H3           3.9840     0.0010     2.1370 ha         1 8T2       0.113000
     49 H4           5.2210     0.0050     0.0080 ha         1 8T2       0.107000
     50 H5           4.0090     0.0010    -2.1310 ha         1 8T2       0.104000
     51 H6           3.0110     0.0060    -3.6490 hn         1 8T2       0.178500
     52 H7           0.6680    -0.8850    -4.9920 h1         1 8T2       0.026200
     53 H8           0.6600     0.8840    -4.9870 h1         1 8T2       0.026200
     54 H9           2.9140    -0.8710    -6.0260 hc         1 8T2       0.019200
     55 H10          2.9050     0.8980    -6.0220 hc         1 8T2       0.019200
     56 H11          0.9120    -0.8780    -7.4780 hc         1 8T2       0.016700
     57 H12          0.9030     0.8910    -7.4730 hc         1 8T2       0.016700
     58 H13          3.1580    -0.8630    -8.5130 hc         1 8T2       0.046200
     59 H14          3.1490     0.9060    -8.5090 hc         1 8T2       0.046200
     60 H15          1.0820     0.8510    -9.9230 h1         1 8T2       0.029700
     61 H16          0.0390    -1.2190   -10.1770 hn         1 8T2       0.175500
     62 H17         -0.9830    -2.7160   -10.3120 ha         1 8T2       0.102000
     63 H18         -2.2240    -4.8240   -10.5450 ha         1 8T2       0.106000
     64 H19         -1.0280    -6.9770   -10.5470 ha         1 8T2       0.112000
     65 H20          1.5720    -7.6290   -11.1920 ho         1 8T2       0.409000
     66 H21          3.2050    -5.3350    -9.2440 ho         1 8T2       0.407000
     67 H22          2.9490     2.1740   -10.8650 hn         1 8T2       0.172500
     68 H23          5.0850     0.8900   -12.2550 h1         1 8T2       0.028200
     69 H24          3.7450     1.1410   -13.3830 h1         1 8T2       0.028200
     70 H25          3.7340     3.5520   -12.8320 hc         1 8T2       0.019700
     71 H26          5.0740     3.3010   -11.7050 hc         1 8T2       0.019700
     72 H27          5.1470     2.7420   -14.6920 hc         1 8T2       0.020700
     73 H28          6.4870     2.4900   -13.5650 hc         1 8T2       0.020700
     74 H29          6.4760     4.9000   -13.0140 h1         1 8T2       0.026700
     75 H30          5.1360     5.1520   -14.1410 h1         1 8T2       0.026700
     76 H31          7.2480     3.8720   -15.5510 hn         1 8T2       0.179500
     77 H32          8.4230     3.9170   -16.9360 ha         1 8T2       0.104000
     78 H33         10.0210     4.1380   -18.7890 ha         1 8T2       0.107000
     79 H34         10.9360     6.3450   -19.3860 ha         1 8T2       0.113000
     80 H35         11.2520     8.6620   -17.9100 ho         1 8T2       0.409000
     81 H36          8.0280     8.9280   -16.6670 ho         1 8T2       0.411000
@<TRIPOS>BOND
     1     1     2 1   
     2     1    46 1   
     3     2     3 ar  
     4     2     8 ar  
     5     3     4 1   
     6     3     5 ar  
     7     4    47 1   
     8     5     6 ar  
     9     5    48 1   
    10     6     7 ar  
    11     6    49 1   
    12     7     8 ar  
    13     7    50 1   
    14     8     9 1   
    15     9    10 2   
    16     9    11 1   
    17    11    12 1   
    18    11    51 1   
    19    12    13 1   
    20    12    52 1   
    21    12    53 1   
    22    13    14 1   
    23    13    54 1   
    24    13    55 1   
    25    14    15 1   
    26    14    56 1   
    27    14    57 1   
    28    15    16 1   
    29    15    58 1   
    30    15    59 1   
    31    16    17 1   
    32    16    28 1   
    33    16    60 1   
    34    17    18 1   
    35    17    61 1   
    36    18    19 2   
    37    18    20 1   
    38    20    21 ar  
    39    20    26 ar  
    40    21    22 ar  
    41    21    62 1   
    42    22    23 ar  
    43    22    63 1   
    44    23    24 ar  
    45    23    64 1   
    46    24    25 1   
    47    24    26 ar  
    48    25    65 1   
    49    26    27 1   
    50    27    66 1   
    51    28    29 2   
    52    28    30 1   
    53    30    31 1   
    54    30    67 1   
    55    31    32 1   
    56    31    68 1   
    57    31    69 1   
    58    32    33 1   
    59    32    70 1   
    60    32    71 1   
    61    33    34 1   
    62    33    72 1   
    63    33    73 1   
    64    34    35 1   
    65    34    74 1   
    66    34    75 1   
    67    35    36 1   
    68    35    76 1   
    69    36    37 2   
    70    36    38 1   
    71    38    39 ar  
    72    38    44 ar  
    73    39    40 ar  
    74    39    77 1   
    75    40    41 ar  
    76    40    78 1   
    77    41    42 ar  
    78    41    79 1   
    79    42    43 1   
    80    42    44 ar  
    81    43    80 1   
    82    44    45 1   
    83    45    81 1   
@<TRIPOS>SUBSTRUCTURE
     1 8T2         1 TEMP              0 ****  ****    0 ROOT
