@<TRIPOS>MOLECULE
molecule
   45    48     1     0     0
SMALL
bcc


@<TRIPOS>ATOM
      1 Cl           0.0000     0.0000     0.0000 cl         1 8T3      -0.067400
      2 C21          1.7360     0.0000     0.0000 ca         1 8T3      -0.072900
      3 C20          2.4360     0.0000     1.1990 ca         1 8T3       0.422200
      4 N10          3.7510    -0.0000     1.2110 nb         1 8T3      -0.686000
      5 C25          2.4370    -0.0070    -1.1970 ca         1 8T3      -0.093000
      6 C18          3.8220    -0.0070    -1.1510 ca         1 8T3      -0.170300
      7 C12          4.4590    -0.0020     0.0870 ca         1 8T3       0.355800
      8 C8           5.9380    -0.0020     0.1520 c          1 8T3       0.583600
      9 O16          6.5910    -0.0040    -0.8730 o          1 8T3      -0.586100
     10 N11          6.5600    -0.0020     1.3480 ns         1 8T3      -0.465100
     11 C15          7.9550    -0.1000     1.4100 ca         1 8T3       0.053600
     12 C22          8.7390     0.4990     0.4330 ca         1 8T3      -0.088000
     13 C19         10.1150     0.4010     0.4970 ca         1 8T3      -0.133000
     14 C13         10.7130    -0.2940     1.5350 ca         1 8T3       0.123900
     15 F23         12.0600    -0.3890     1.5960 f          1 8T3      -0.140900
     16 C14          8.5570    -0.7930     2.4520 ca         1 8T3      -0.125000
     17 C7           9.9330    -0.8930     2.5100 ca         1 8T3      -0.125300
     18 C2          10.5870    -1.6490     3.6390 c3         1 8T3       0.203500
     19 C24         11.5010    -0.7060     4.4230 c3         1 8T3      -0.089100
     20 C9          11.4160    -2.8090     3.0670 c3         1 8T3      -0.074400
     21 C4          12.1140    -3.5020     4.2510 cx         1 8T3      -0.071700
     22 C6          11.5820    -4.8760     4.6620 cx         1 8T3      -0.094400
     23 C3          11.2380    -3.6490     5.5090 cx         1 8T3      -0.285000
     24 C5           9.8350    -3.1040     5.3960 c2         1 8T3       0.448200
     25 N1           9.5560    -2.1860     4.5290 n2         1 8T3      -0.523900
     26 N17          8.8500    -3.5830     6.2200 nz         1 8T3      -0.731600
     27 H20          1.8930     0.0010     2.1360 h4         1 8T3       0.041100
     28 H25          1.9140    -0.0110    -2.1460 ha         1 8T3       0.168000
     29 H18          4.4010    -0.0100    -2.0670 ha         1 8T3       0.175000
     30 H11          6.0280     0.1000     2.1890 hn         1 8T3       0.347500
     31 H22          8.2710     1.0430    -0.3790 ha         1 8T3       0.186000
     32 H14          7.9470    -1.2620     3.2150 ha         1 8T3       0.140000
     33 H19         10.7270     0.8690    -0.2650 ha         1 8T3       0.166000
     34 H241        12.5170    -0.8050     4.0620 hc         1 8T3       0.062033
     35 H242        11.1670     0.3160     4.2870 hc         1 8T3       0.062033
     36 H243        11.4640    -0.9600     5.4750 hc         1 8T3       0.062033
     37 H91C        10.7640    -3.5110     2.5620 hc         1 8T3       0.091200
     38 H92C        12.1580    -2.4240     2.3770 hc         1 8T3       0.091200
     39 H4          13.1640    -3.3170     4.4410 hc         1 8T3       0.120700
     40 H61C        12.3130    -5.5500     5.0920 hc         1 8T3       0.096200
     41 H62C        10.7740    -5.2650     4.0540 hc         1 8T3       0.096200
     42 H3          11.7680    -3.5620     6.4500 hc         1 8T3       0.122700
     43 H171         8.2870    -2.8220     6.5450 hn         1 8T3       0.467133
     44 H172         8.2770    -4.2290     5.7140 hn         1 8T3       0.467133
     45 H173         9.2660    -4.0480     7.0020 hn         1 8T3       0.467133
@<TRIPOS>BOND
     1     1     2 1   
     2     2     3 ar  
     3     2     5 ar  
     4     3     4 ar  
     5     4     7 ar  
     6     5     6 ar  
     7     6     7 ar  
     8     7     8 1   
     9     8     9 2   
    10     8    10 1   
    11    10    11 1   
    12    11    12 ar  
    13    11    16 ar  
    14    12    13 ar  
    15    13    14 ar  
    16    14    15 1   
    17    14    17 ar  
    18    16    17 ar  
    19    17    18 1   
    20    18    19 1   
    21    18    20 1   
    22    18    25 1   
    23    20    21 1   
    24    21    22 1   
    25    21    23 1   
    26    22    23 1   
    27    23    24 1   
    28    24    25 2   
    29    24    26 1   
    30     3    27 1   
    31     5    28 1   
    32     6    29 1   
    33    10    30 1   
    34    12    31 1   
    35    16    32 1   
    36    13    33 1   
    37    19    34 1   
    38    19    35 1   
    39    19    36 1   
    40    20    37 1   
    41    20    38 1   
    42    21    39 1   
    43    22    40 1   
    44    22    41 1   
    45    23    42 1   
    46    26    43 1   
    47    26    44 1   
    48    45    26 1   
@<TRIPOS>SUBSTRUCTURE
     1 8T3         1 TEMP              0 ****  ****    0 ROOT
