@<TRIPOS>MOLECULE
8T3
   45    48     1     0     0
SMALL
bcc


@<TRIPOS>ATOM
      1 Cl           0.0000     0.0000     0.0000 cl         1 8T3       0.027600
      2 C21          1.7360     0.0000     0.0000 ca         1 8T3      -0.140900
      3 C20          2.4360     0.0000     1.1990 ca         1 8T3       0.398200
      4 N10          3.7510    -0.0000     1.2110 nb         1 8T3      -0.574000
      5 C25          2.4370    -0.0070    -1.1970 ca         1 8T3      -0.072000
      6 C18          3.8220    -0.0070    -1.1510 ca         1 8T3      -0.127300
      7 C12          4.4590    -0.0020     0.0870 ca         1 8T3       0.293800
      8 C8           5.9380    -0.0020     0.1520 c          1 8T3       0.485600
      9 O16          6.5910    -0.0040    -0.8730 o          1 8T3      -0.629100
     10 N11          6.5600    -0.0020     1.3480 ns         1 8T3      -0.025100
     11 C15          7.9550    -0.1000     1.4100 ca         1 8T3      -0.083400
     12 C22          8.7390     0.4990     0.4330 ca         1 8T3      -0.062000
     13 C19         10.1150     0.4010     0.4970 ca         1 8T3      -0.092000
     14 C13         10.7130    -0.2940     1.5350 ca         1 8T3       0.102900
     15 F23         12.0600    -0.3890     1.5960 f          1 8T3      -0.125900
     16 C14          8.5570    -0.7930     2.4520 ca         1 8T3      -0.108000
     17 C7           9.9330    -0.8930     2.5100 ca         1 8T3      -0.138300
     18 C2          10.5870    -1.6490     3.6390 c3         1 8T3       0.172500
     19 C24         11.5010    -0.7060     4.4230 c3         1 8T3      -0.008100
     20 C9          11.4160    -2.8090     3.0670 c3         1 8T3      -0.021400
     21 C4          12.1140    -3.5020     4.2510 cx         1 8T3      -0.047700
     22 C6          11.5820    -4.8760     4.6620 cx         1 8T3      -0.026400
     23 C3          11.2380    -3.6490     5.5090 cx         1 8T3      -0.238000
     24 C5           9.8350    -3.1040     5.3960 c2         1 8T3       0.152200
     25 N1           9.5560    -2.1860     4.5290 n2         1 8T3      -0.348900
     26 N17          8.8500    -3.5830     6.2200 nz         1 8T3       0.209400
     27 H20          1.8930     0.0010     2.1360 h4         1 8T3      -0.005900
     28 H25          1.9140    -0.0110    -2.1460 ha         1 8T3       0.131000
     29 H18          4.4010    -0.0100    -2.0670 ha         1 8T3       0.142000
     30 H11          6.0280     0.1000     2.1890 hn         1 8T3       0.188500
     31 H22          8.2710     1.0430    -0.3790 ha         1 8T3       0.161000
     32 H14          7.9470    -1.2620     3.2150 ha         1 8T3       0.111000
     33 H19         10.7270     0.8690    -0.2650 ha         1 8T3       0.133000
     34 H241        12.5170    -0.8050     4.0620 hc         1 8T3       0.030033
     35 H242        11.1670     0.3160     4.2870 hc         1 8T3       0.030033
     36 H243        11.4640    -0.9600     5.4750 hc         1 8T3       0.030033
     37 H91C        10.7640    -3.5110     2.5620 hc         1 8T3       0.059200
     38 H92C        12.1580    -2.4240     2.3770 hc         1 8T3       0.059200
     39 H4          13.1640    -3.3170     4.4410 hc         1 8T3       0.088700
     40 H61C        12.3130    -5.5500     5.0920 hc         1 8T3       0.061700
     41 H62C        10.7740    -5.2650     4.0540 hc         1 8T3       0.061700
     42 H3          11.7680    -3.5620     6.4500 hc         1 8T3       0.099700
     43 H171         8.2870    -2.8220     6.5450 hn         1 8T3       0.214467
     44 H172         8.2770    -4.2290     5.7140 hn         1 8T3       0.214467
     45 H173         9.2660    -4.0480     7.0020 hn         1 8T3       0.214467
@<TRIPOS>BOND
     1     1     2 1   
     2     2     3 ar  
     3     2     5 ar  
     4     3     4 ar  
     5     3    27 1   
     6     4     7 ar  
     7     5     6 ar  
     8     5    28 1   
     9     6     7 ar  
    10     6    29 1   
    11     7     8 1   
    12     8     9 2   
    13     8    10 1   
    14    10    11 1   
    15    10    30 1   
    16    11    12 ar  
    17    11    16 ar  
    18    12    13 ar  
    19    12    31 1   
    20    13    14 ar  
    21    13    33 1   
    22    14    15 1   
    23    14    17 ar  
    24    16    17 ar  
    25    16    32 1   
    26    17    18 1   
    27    18    19 1   
    28    18    20 1   
    29    18    25 1   
    30    19    34 1   
    31    19    35 1   
    32    19    36 1   
    33    20    21 1   
    34    20    37 1   
    35    20    38 1   
    36    21    22 1   
    37    21    23 1   
    38    21    39 1   
    39    22    23 1   
    40    22    40 1   
    41    22    41 1   
    42    23    24 1   
    43    23    42 1   
    44    24    25 2   
    45    24    26 1   
    46    26    43 1   
    47    26    44 1   
    48    26    45 1   
@<TRIPOS>SUBSTRUCTURE
     1 8T3         1 TEMP              0 ****  ****    0 ROOT
