@<TRIPOS>MOLECULE
molecule
   30    32     1     0     0
SMALL
bcc


@<TRIPOS>ATOM
      1 C1           0.0000     0.0000     0.0000 c3         1 8T4       0.058600
      2 N1           1.4650     0.0000     0.0000 na         1 8T4       0.067400
      3 C2           2.2570     0.0000     1.0960 cc         1 8T4       0.020500
      4 C3           3.5670     0.0010     0.6540 cd         1 8T4      -0.260300
      5 C4           3.5340     0.0020    -0.7540 cd         1 8T4       0.358200
      6 N2           2.2850    -0.0040    -1.1340 nc         1 8T4      -0.500800
      7 C5           4.7820     0.0010     1.5060 ca         1 8T4      -0.007000
      8 C6           5.7990    -0.9220     1.2720 ca         1 8T4      -0.117000
      9 C7           6.9270    -0.9160     2.0680 ca         1 8T4      -0.128500
     10 C8           7.0490     0.0030     3.0950 ca         1 8T4      -0.130000
     11 C9           6.0410     0.9200     3.3310 ca         1 8T4      -0.128500
     12 C10          4.9110     0.9280     2.5380 ca         1 8T4      -0.117000
     13 N3           1.8310    -0.0010     2.4240 na         1 8T4       0.030800
     14 C11          0.8400     0.7830     2.9440 cc         1 8T4      -0.147800
     15 C12          0.7210     0.4960     4.2560 cd         1 8T4      -0.199000
     16 C13          1.6710    -0.5010     4.5590 cd         1 8T4      -0.199000
     17 C14          2.3320    -0.7900     3.4200 cc         1 8T4      -0.147800
     18 H1          -0.3610    -0.3100    -0.9730 h1         1 8T4       0.060033
     19 H2          -0.3610    -0.6880     0.7550 h1         1 8T4       0.060033
     20 H3          -0.3610     0.9980     0.2180 h1         1 8T4       0.060033
     21 H4           4.3970     0.0010    -1.4080 h4         1 8T4       0.057100
     22 H5           5.7050    -1.6410     0.4680 ha         1 8T4       0.135500
     23 H6           7.7190    -1.6330     1.8870 ha         1 8T4       0.130000
     24 H7           7.9350     0.0010     3.7180 ha         1 8T4       0.128000
     25 H8           6.1420     1.6390     4.1350 ha         1 8T4       0.130000
     26 H9           4.1230     1.6470     2.7240 ha         1 8T4       0.135500
     27 H10          0.2520     1.5100     2.3970 h4         1 8T4       0.172500
     28 H11          0.0240     0.9500     4.9500 ha         1 8T4       0.152500
     29 H12          1.8350    -0.9550     5.5290 ha         1 8T4       0.152500
     30 H13          3.1280    -1.5180     3.3150 h4         1 8T4       0.172500
@<TRIPOS>BOND
     1     1     2 1   
     2     6     2 1   
     3     6     5 2   
     4     2     3 1   
     5     5     4 1   
     6     3    13 1   
     7     3     4 2   
     8    17    13 1   
     9    17    16 2   
    10    13    14 1   
    11     4     7 1   
    12    16    15 1   
    13    14    15 2   
    14     7     8 ar  
    15     7    12 ar  
    16     8     9 ar  
    17    12    11 ar  
    18     9    10 ar  
    19    11    10 ar  
    20     1    18 1   
    21     1    19 1   
    22     1    20 1   
    23     5    21 1   
    24     8    22 1   
    25     9    23 1   
    26    10    24 1   
    27    11    25 1   
    28    12    26 1   
    29    14    27 1   
    30    15    28 1   
    31    16    29 1   
    32    17    30 1   
@<TRIPOS>SUBSTRUCTURE
     1 8T4         1 TEMP              0 ****  ****    0 ROOT
