@<TRIPOS>MOLECULE
molecule
   27    28     1     0     0
SMALL
bcc


@<TRIPOS>ATOM
      1 N1           0.0000     0.0000     0.0000 na         1 8T7       0.059400
      2 N3           2.1750     0.0020    -1.1190 nv         1 8T7      -0.931200
      3 C4           3.1640     0.0000     1.8070 ca         1 8T7      -0.008000
      4 C5           3.6570     1.0930     2.5190 ca         1 8T7      -0.110500
      5 C6           4.9620     1.0880     2.9680 ca         1 8T7      -0.132000
      6 C7           5.7800     0.0020     2.7140 ca         1 8T7      -0.127000
      7 C8           5.2950    -1.0850     2.0080 ca         1 8T7      -0.132000
      8 C10          0.6010    -0.0010     2.1200 cc         1 8T7       0.276600
      9 C1          -0.8590     0.0000    -1.1870 c3         1 8T7       0.062600
     10 C2           1.3510     0.0000     0.0000 cc         1 8T7       0.194300
     11 C3           1.7620     0.0000     1.3210 cd         1 8T7      -0.264300
     12 C9           3.9930    -1.0900     1.5490 ca         1 8T7      -0.110500
     13 C11          0.5660     0.0020     3.6250 c3         1 8T7       0.616600
     14 F1          -0.7600    -0.1040     4.0610 f          1 8T7      -0.214633
     15 F2           1.3040    -1.0830     4.1120 f          1 8T7      -0.214633
     16 F3           1.1200     1.1940     4.1030 f          1 8T7      -0.214633
     17 N2          -0.4390     0.0050     1.3290 nd         1 8T7      -0.469800
     18 H1           2.0260    -0.6650    -1.8500 hn         1 8T7       0.443300
     19 H2           2.8990     0.6870    -1.2060 hn         1 8T7       0.443300
     20 H3           3.0170     1.9440     2.7180 ha         1 8T7       0.136500
     21 H4           5.3460     1.9360     3.5210 ha         1 8T7       0.129000
     22 H5           6.8030     0.0020     3.0700 ha         1 8T7       0.128000
     23 H6           5.9410    -1.9330     1.8100 ha         1 8T7       0.129000
     24 H7          -0.6540    -0.8820    -1.7810 h1         1 8T7       0.057700
     25 H8          -1.8980    -0.0040    -0.8810 h1         1 8T7       0.057700
     26 H9          -0.6600     0.8870    -1.7770 h1         1 8T7       0.057700
     27 H10          3.6150    -1.9420     0.9970 ha         1 8T7       0.136500
@<TRIPOS>BOND
     1     7     6 ar
     2     7    12 ar
     3     6     5 ar
     4    12     3 ar
     5     5     4 ar
     6     2    10 1
     7     3     4 ar
     8     3    11 1
     9    16    13 1
    10    10    11 2
    11    10     1 1
    12    11     8 1
    13     1     9 1
    14     1    17 1
    15     8    17 2
    16     8    13 1
    17    13    14 1
    18    13    15 1
    19     2    18 1
    20     2    19 1
    21     4    20 1
    22     5    21 1
    23     6    22 1
    24     7    23 1
    25     9    24 1
    26     9    25 1
    27     9    26 1
    28    12    27 1
@<TRIPOS>SUBSTRUCTURE
     1 8T7         1 TEMP              0 ****  ****    0 ROOT
