@<TRIPOS>MOLECULE
8T7
   27    28     1     0     0
SMALL
bcc


@<TRIPOS>ATOM
      1 N1           0.0000     0.0000     0.0000 na         1 8T7       0.483400
      2 N3           2.1750     0.0020    -1.1190 nv         1 8T7      -0.459200
      3 C4           3.1640     0.0000     1.8070 ca         1 8T7       0.000000
      4 C5           3.6570     1.0930     2.5190 ca         1 8T7      -0.091000
      5 C6           4.9620     1.0880     2.9680 ca         1 8T7      -0.100500
      6 C7           5.7800     0.0020     2.7140 ca         1 8T7      -0.100000
      7 C8           5.2950    -1.0850     2.0080 ca         1 8T7      -0.100500
      8 C10          0.6010    -0.0010     2.1200 cc         1 8T7       0.276600
      9 C1          -0.8590     0.0000    -1.1870 c3         1 8T7       0.022600
     10 C2           1.3510     0.0000     0.0000 cd         1 8T7      -0.110700
     11 C3           1.7620     0.0000     1.3210 cc         1 8T7      -0.247300
     12 C9           3.9930    -1.0900     1.5490 ca         1 8T7      -0.091000
     13 C11          0.5660     0.0020     3.6250 c3         1 8T7       0.576600
     14 F1          -0.7600    -0.1040     4.0610 f          1 8T7      -0.205633
     15 F2           1.3040    -1.0830     4.1120 f          1 8T7      -0.205633
     16 F3           1.1200     1.1940     4.1030 f          1 8T7      -0.205633
     17 N2          -0.4390     0.0050     1.3290 nd         1 8T7      -0.593800
     18 H1           2.0260    -0.6650    -1.8500 hn         1 8T7       0.275800
     19 H2           2.8990     0.6870    -1.2060 hn         1 8T7       0.275800
     20 H3           3.0170     1.9440     2.7180 ha         1 8T7       0.111000
     21 H4           5.3460     1.9360     3.5210 ha         1 8T7       0.103000
     22 H5           6.8030     0.0020     3.0700 ha         1 8T7       0.101000
     23 H6           5.9410    -1.9330     1.8100 ha         1 8T7       0.103000
     24 H7          -0.6540    -0.8820    -1.7810 h1         1 8T7       0.024033
     25 H8          -1.8980    -0.0040    -0.8810 h1         1 8T7       0.024033
     26 H9          -0.6600     0.8870    -1.7770 h1         1 8T7       0.024033
     27 H10          3.6150    -1.9420     0.9970 ha         1 8T7       0.111000
@<TRIPOS>BOND
     1     1     9 1   
     2     1    10 1   
     3     1    17 1   
     4     2    10 1   
     5     2    18 1   
     6     2    19 1   
     7     3     4 ar  
     8     3    11 1   
     9     3    12 ar  
    10     4     5 ar  
    11     4    20 1   
    12     5     6 ar  
    13     5    21 1   
    14     6     7 ar  
    15     6    22 1   
    16     7    12 ar  
    17     7    23 1   
    18     8    11 1   
    19     8    13 1   
    20     8    17 2   
    21     9    24 1   
    22     9    25 1   
    23     9    26 1   
    24    10    11 2   
    25    12    27 1   
    26    13    14 1   
    27    13    15 1   
    28    13    16 1   
@<TRIPOS>SUBSTRUCTURE
     1 8T7         1 TEMP              0 ****  ****    0 ROOT
