@<TRIPOS>MOLECULE
molecule
   45    48     1     0     0
SMALL
bcc


@<TRIPOS>ATOM
      1 FAA          0.0000     0.0000     0.0000 f          1 8T8      -0.205633
      2 CBA          1.3990     0.0000     0.0000 c3         1 8T8       0.796700
      3 FAB          1.8650     0.0000     1.3200 f          1 8T8      -0.205633
      4 FAC          1.8660    -1.1430    -0.6590 f          1 8T8      -0.205633
      5 OAR          1.8760     1.1670    -0.6730 os         1 8T8      -0.340900
      6 CAU          1.5100     2.3700    -0.1560 ca         1 8T8       0.139100
      7 CAK          1.9380     3.5350    -0.7620 ca         1 8T8      -0.157000
      8 CAI          0.7010     2.4190     0.9770 ca         1 8T8      -0.227000
      9 CAJ          0.3240     3.6190     1.5080 ca         1 8T8      -0.040000
     10 CAY          0.7500     4.8090     0.9140 ca         1 8T8      -0.115800
     11 CAX          1.5650     4.7670    -0.2350 ca         1 8T8      -0.012200
     12 NAQ          1.8280     6.0690    -0.5970 na         1 8T8      -0.154400
     13 CAW          1.2130     6.9290     0.2730 cc         1 8T8      -0.043300
     14 CAV          0.5440     6.2240     1.2040 cd         1 8T8      -0.145400
     15 CAM         -0.2570     6.8320     2.3280 c3         1 8T8      -0.003200
     16 CAL          0.1460     8.3050     2.4700 c3         1 8T8      -0.078400
     17 CAN          0.1020     8.9780     1.0940 c3         1 8T8      -0.109400
     18 CAZ          1.2490     8.4380     0.2290 c3         1 8T8       0.228700
     19 NAP          1.0680     8.8960    -1.1550 n7         1 8T8      -0.820200
     20 CAO          1.6640    10.2250    -1.3520 c3         1 8T8       0.201100
     21 CAT          1.4590    10.6610    -2.7800 ca         1 8T8      -0.078300
     22 CAG          0.3250    11.3710    -3.1310 ca         1 8T8      -0.114500
     23 CAE          0.1370    11.7700    -4.4410 ca         1 8T8      -0.102000
     24 CAS          1.0830    11.4590    -5.4010 ca         1 8T8      -0.015900
     25 Br           0.8230    11.9990    -7.1940 br         1 8T8      -0.093100
     26 CAF          2.2160    10.7490    -5.0500 ca         1 8T8      -0.102000
     27 CAH          2.4070    10.3540    -3.7390 ca         1 8T8      -0.114500
     28 H1           2.5010     3.4900    -1.6860 ha         1 8T8       0.144000
     29 H2           0.3690     1.4980     1.4400 ha         1 8T8       0.147000
     30 H3          -0.3050     3.6480     2.3890 ha         1 8T8       0.136000
     31 H4           2.3860     6.3460    -1.3800 hn         1 8T8       0.307700
     32 H5          -0.0440     6.3070     3.2510 hc         1 8T8       0.050700
     33 H6          -1.3130     6.7650     2.0990 hc         1 8T8       0.050700
     34 H7           1.1510     8.3660     2.8690 hc         1 8T8       0.046700
     35 H8          -0.5450     8.8040     3.1370 hc         1 8T8       0.046700
     36 H9          -0.8440     8.7580     0.6160 hc         1 8T8       0.049700
     37 H10          0.2140    10.0490     1.2140 hc         1 8T8       0.049700
     38 H11          2.1970     8.7920     0.6160 h1         1 8T8       0.072700
     39 H12          0.0910     8.9330    -1.3690 hn         1 8T8       0.368800
     40 H14          2.7240    10.1810    -1.1360 h1         1 8T8       0.041700
     41 H15          1.1890    10.9360    -0.6860 h1         1 8T8       0.041700
     42 H16         -0.4150    11.6140    -2.3790 ha         1 8T8       0.137000
     43 H17         -0.7510    12.3260    -4.7150 ha         1 8T8       0.145500
     44 H18          2.9580    10.5070    -5.8020 ha         1 8T8       0.145500
     45 H19          3.2950     9.7980    -3.4640 ha         1 8T8       0.137000
@<TRIPOS>BOND
     1    25    24 1   
     2    24    26 ar  
     3    24    23 ar  
     4    26    27 ar  
     5    23    22 ar  
     6     9     8 ar  
     7     9    10 ar  
     8    15    16 1   
     9    15    14 1   
    10     8     6 ar  
    11    27    21 ar  
    12    10    14 1   
    13    10    11 ar  
    14    16    17 1   
    15    22    21 ar  
    16    14    13 2   
    17    21    20 1   
    18     6     5 1   
    19     6     7 ar  
    20     1     2 1   
    21     5     2 1   
    22    17    18 1   
    23    11     7 ar  
    24    11    12 1   
    25    13    18 1   
    26    13    12 1   
    27     2     3 1   
    28     2     4 1   
    29    20    19 1   
    30    18    19 1   
    31     7    28 1   
    32     8    29 1   
    33     9    30 1   
    34    12    31 1   
    35    15    32 1   
    36    15    33 1   
    37    16    34 1   
    38    16    35 1   
    39    17    36 1   
    40    17    37 1   
    41    18    38 1   
    42    19    39 1   
    43    20    40 1   
    44    20    41 1   
    45    22    42 1   
    46    23    43 1   
    47    26    44 1   
    48    27    45 1   
@<TRIPOS>SUBSTRUCTURE
     1 8T8         1 TEMP              0 ****  ****    0 ROOT
