@<TRIPOS>MOLECULE
8T8
   45    48     1     0     0
SMALL
bcc


@<TRIPOS>ATOM
      1 FAA          0.0000     0.0000     0.0000 f          1 8T8      -0.198967
      2 CBA          1.3990     0.0000     0.0000 c3         1 8T8       0.756700
      3 FAB          1.8650     0.0000     1.3200 f          1 8T8      -0.198967
      4 FAC          1.8660    -1.1430    -0.6590 f          1 8T8      -0.198967
      5 OAR          1.8760     1.1670    -0.6730 os         1 8T8      -0.315900
      6 CAU          1.5100     2.3700    -0.1560 ca         1 8T8       0.147100
      7 CAK          1.9380     3.5350    -0.7620 ca         1 8T8      -0.124000
      8 CAI          0.7010     2.4190     0.9770 ca         1 8T8      -0.229000
      9 CAJ          0.3240     3.6190     1.5080 ca         1 8T8       0.009000
     10 CAY          0.7500     4.8090     0.9140 ca         1 8T8      -0.117800
     11 CAX          1.5650     4.7670    -0.2350 ca         1 8T8      -0.203200
     12 NAQ          1.8280     6.0690    -0.5970 na         1 8T8       0.397600
     13 CAW          1.2130     6.9290     0.2730 cc         1 8T8      -0.254300
     14 CAV          0.5440     6.2240     1.2040 cd         1 8T8      -0.138400
     15 CAM         -0.2570     6.8320     2.3280 c3         1 8T8       0.072800
     16 CAL          0.1460     8.3050     2.4700 c3         1 8T8      -0.020400
     17 CAN          0.1020     8.9780     1.0940 c3         1 8T8      -0.055400
     18 CAZ          1.2490     8.4380     0.2290 c3         1 8T8       0.209700
     19 NAP          1.0680     8.8960    -1.1550 n7         1 8T8      -0.597200
     20 CAO          1.6640    10.2250    -1.3520 c3         1 8T8       0.201100
     21 CAT          1.4590    10.6610    -2.7800 ca         1 8T8      -0.093300
     22 CAG          0.3250    11.3710    -3.1310 ca         1 8T8      -0.083000
     23 CAE          0.1370    11.7700    -4.4410 ca         1 8T8      -0.082000
     24 CAS          1.0830    11.4590    -5.4010 ca         1 8T8       0.037100
     25 Br           0.8230    11.9990    -7.1940 br         1 8T8      -0.128100
     26 CAF          2.2160    10.7490    -5.0500 ca         1 8T8      -0.082000
     27 CAH          2.4070    10.3540    -3.7390 ca         1 8T8      -0.083000
     28 H1           2.5010     3.4900    -1.6860 ha         1 8T8       0.116000
     29 H2           0.3690     1.4980     1.4400 ha         1 8T8       0.130000
     30 H3          -0.3050     3.6480     2.3890 ha         1 8T8       0.103000
     31 H4           2.3860     6.3460    -1.3800 hn         1 8T8       0.120700
     32 H5          -0.0440     6.3070     3.2510 hc         1 8T8       0.017700
     33 H6          -1.3130     6.7650     2.0990 hc         1 8T8       0.017700
     34 H7           1.1510     8.3660     2.8690 hc         1 8T8       0.016700
     35 H8          -0.5450     8.8040     3.1370 hc         1 8T8       0.016700
     36 H9          -0.8440     8.7580     0.6160 hc         1 8T8       0.021700
     37 H10          0.2140    10.0490     1.2140 hc         1 8T8       0.021700
     38 H11          2.1970     8.7920     0.6160 h1         1 8T8       0.040700
     39 H12          0.0910     8.9330    -1.3690 hn         1 8T8       0.269800
     40 H14          2.7240    10.1810    -1.1360 h1         1 8T8       0.013200
     41 H15          1.1890    10.9360    -0.6860 h1         1 8T8       0.013200
     42 H16         -0.4150    11.6140    -2.3790 ha         1 8T8       0.109000
     43 H17         -0.7510    12.3260    -4.7150 ha         1 8T8       0.117000
     44 H18          2.9580    10.5070    -5.8020 ha         1 8T8       0.117000
     45 H19          3.2950     9.7980    -3.4640 ha         1 8T8       0.109000
@<TRIPOS>BOND
     1     1     2 1   
     2     2     3 1   
     3     2     4 1   
     4     2     5 1   
     5     5     6 1   
     6     6     7 ar  
     7     6     8 ar  
     8     7    11 ar  
     9     7    28 1   
    10     8     9 ar  
    11     8    29 1   
    12     9    10 ar  
    13     9    30 1   
    14    10    11 ar  
    15    10    14 1   
    16    11    12 1   
    17    12    13 1   
    18    12    31 1   
    19    13    14 2   
    20    13    18 1   
    21    14    15 1   
    22    15    16 1   
    23    15    32 1   
    24    15    33 1   
    25    16    17 1   
    26    16    34 1   
    27    16    35 1   
    28    17    18 1   
    29    17    36 1   
    30    17    37 1   
    31    18    19 1   
    32    18    38 1   
    33    19    20 1   
    34    19    39 1   
    35    20    21 1   
    36    20    40 1   
    37    20    41 1   
    38    21    22 ar  
    39    21    27 ar  
    40    22    23 ar  
    41    22    42 1   
    42    23    24 ar  
    43    23    43 1   
    44    24    25 1   
    45    24    26 ar  
    46    26    27 ar  
    47    26    44 1   
    48    27    45 1   
@<TRIPOS>SUBSTRUCTURE
     1 8T8         1 TEMP              0 ****  ****    0 ROOT
