@<TRIPOS>MOLECULE
molecule
   65    68     1     0     0
SMALL
bcc


@<TRIPOS>ATOM
      1 C10          0.0000     0.0000     0.0000 c3         1 8T9      -0.027200
      2 C13         -0.0190     2.4760    -0.0410 c          1 8T9       0.579100
      3 C15          2.0680     2.5330    -1.3530 c          1 8T9       0.608100
      4 C17          1.5910     4.3400     0.2850 c3         1 8T9      -0.116100
      5 C20          4.2730     1.2900     1.2740 c2         1 8T9      -0.107200
      6 C21          4.2070     1.1260     3.6930 c          1 8T9       0.730800
      7 C22          4.5170     1.8530     2.4510 ce         1 8T9      -0.255200
      8 C26          2.4320     2.2690    -5.6980 c3         1 8T9       0.136700
      9 C01          3.6860    -0.0990     1.1930 c3         1 8T9      -0.015600
     10 C02          2.1870     0.0000     1.1210 c2         1 8T9      -0.083400
     11 C03          4.1920    -0.7690    -0.0910 c3         1 8T9      -0.065400
     12 C04          3.6960     0.0390    -1.2910 c3         1 8T9      -0.095400
     13 C05          2.1820     0.0460    -1.3540 c3         1 8T9       0.013200
     14 C06          1.5180     0.0000     0.0000 c2         1 8T9      -0.140400
     15 C07          1.6850     1.2830    -2.1170 c3         1 8T9      -0.137800
     16 C08          0.1630     1.2250    -2.1320 c2         1 8T9      -0.121400
     17 C09         -0.5000     1.2350    -0.7650 c3         1 8T9      -0.101800
     18 C11          1.7500    -1.2020    -2.1360 c3         1 8T9      -0.087100
     19 C12         -0.5250     1.1790    -3.2440 c2         1 8T9      -0.178000
     20 O01         -0.4240     2.7410     1.0680 o          1 8T9      -0.499100
     21 C14          0.9750     3.3780    -0.7360 c3         1 8T9      -0.023200
     22 O02          3.2250     2.8740    -1.2460 o          1 8T9      -0.503100
     23 C16         -2.0250     1.2230    -0.8890 c3         1 8T9      -0.073100
     24 O03          0.3140     4.1340    -1.7540 oh         1 8T9      -0.567800
     25 C18          1.4200     0.1820     2.4110 c3         1 8T9      -0.090900
     26 C19          4.1600    -0.9020     2.4030 c3         1 8T9       0.174800
     27 O04          3.8950    -0.1860     3.6380 os         1 8T9      -0.408900
     28 O05          4.2080     1.7170     4.7620 o          1 8T9      -0.576500
     29 C23          3.4870    -2.2780     2.4430 c3         1 8T9      -0.102100
     30 C25          2.2300     1.3150    -3.5240 c          1 8T9       0.659100
     31 O06          2.9930     0.4550    -3.8960 o          1 8T9      -0.536000
     32 O07          1.8690     2.3010    -4.3610 os         1 8T9      -0.414900
     33 H1          -0.3610    -0.8980    -0.4870 hc         1 8T9       0.069700
     34 H2          -0.3610     0.0360     1.0210 hc         1 8T9       0.069700
     35 H3           0.8180     4.9830     0.6890 hc         1 8T9       0.061700
     36 H4           2.0450     3.7730     1.0890 hc         1 8T9       0.061700
     37 H5           2.3470     4.9460    -0.2000 hc         1 8T9       0.061700
     38 H6           4.5080     1.8270     0.3630 ha         1 8T9       0.161000
     39 H8           4.9900     2.8270     2.4980 ha         1 8T9       0.163000
     40 H10          5.8870    -1.9390     1.6270 hc         1 8T9       0.052533
     41 H11          6.1610    -0.2240     1.9630 hc         1 8T9       0.052533
     42 H12          6.0650    -1.3820     3.2970 hc         1 8T9       0.052533
     43 H13          3.5100     2.3530    -5.6380 h1         1 8T9       0.051700
     44 H14          2.1690     1.3350    -6.1790 h1         1 8T9       0.051700
     45 H15          2.0370     3.0960    -6.2750 h1         1 8T9       0.051700
     46 H17          3.8060    -1.7800    -0.1490 hc         1 8T9       0.054700
     47 H18          5.2750    -0.7870    -0.0890 hc         1 8T9       0.054700
     48 H19          4.0860    -0.4010    -2.2010 hc         1 8T9       0.075700
     49 H20          4.0510     1.0590    -1.2020 hc         1 8T9       0.075700
     50 H22          2.5650    -1.5320    -2.7680 hc         1 8T9       0.046033
     51 H23          1.4900    -1.9910    -1.4410 hc         1 8T9       0.046033
     52 H24          0.8900    -0.9640    -2.7500 hc         1 8T9       0.046033
     53 H25         -0.0130     1.1770    -4.1990 ha         1 8T9       0.128500
     54 H26         -1.6070     1.1390    -3.2110 ha         1 8T9       0.128500
     55 H27         -2.3370     0.3270    -1.4110 hc         1 8T9       0.050033
     56 H28         -2.3490     2.0950    -1.4430 hc         1 8T9       0.050033
     57 H29         -2.4680     1.2380     0.0990 hc         1 8T9       0.050033
     58 H30          0.2380     5.0320    -1.4800 ho         1 8T9       0.419000
     59 H31          1.0680     1.2040     2.4810 hc         1 8T9       0.061700
     60 H32          2.0690    -0.0350     3.2500 hc         1 8T9       0.061700
     61 H33          0.5730    -0.4930     2.4250 hc         1 8T9       0.061700
     62 H34          4.0210    -2.9610     1.7930 hc         1 8T9       0.052533
     63 H35          2.4610    -2.1880     2.1070 hc         1 8T9       0.052533
     64 H36          3.5020    -2.6580     3.4570 hc         1 8T9       0.052533
     65 C24          5.6810    -1.1290     2.3160 c3         1 8T9      -0.102100
@<TRIPOS>BOND
     1     8    32 1
     2    32    30 1
     3    24    21 1
     4    30    31 2
     5    30    15 1
     6    22     3 2
     7    19    16 2
     8     3    21 1
     9     3    15 1
    10    21     4 1
    11    21     2 1
    12    15    16 1
    13    15    13 1
    14    16    17 1
    15     2    17 1
    16     2    20 2
    17    23    17 1
    18    17     1 1
    19    13    18 1
    20    13    12 1
    21    13    14 1
    22    12    11 1
    23     1    14 1
    24    11     9 1
    25    14    10 2
    26    10     9 1
    27    10    25 1
    28     5     9 1
    29     5     7 2
    30     9    26 1
    31    65    26 1
    32     7     6 1
    33    26    29 1
    34    26    27 1
    35     6    27 1
    36     6    28 2
    37     1    33 1
    38     1    34 1
    39     4    35 1
    40     4    36 1
    41     4    37 1
    42     5    38 1
    43     7    39 1
    44    65    40 1
    45    65    41 1
    46    65    42 1
    47     8    43 1
    48     8    44 1
    49     8    45 1
    50    11    46 1
    51    11    47 1
    52    12    48 1
    53    12    49 1
    54    18    50 1
    55    18    51 1
    56    18    52 1
    57    19    53 1
    58    19    54 1
    59    23    55 1
    60    23    56 1
    61    23    57 1
    62    24    58 1
    63    25    59 1
    64    25    60 1
    65    25    61 1
    66    29    62 1
    67    29    63 1
    68    29    64 1
@<TRIPOS>SUBSTRUCTURE
     1 8T9         1 TEMP              0 ****  ****    0 ROOT
