@<TRIPOS>MOLECULE
molecule
   26    28     1     0     0
SMALL
bcc


@<TRIPOS>ATOM
      1 N1           0.0000     0.0000     0.0000 nb         1 8TA      -0.701000
      2 N3           2.5200    -0.0110    -3.4400 na         1 8TA      -0.042600
      3 C4           1.3280     0.0000     0.0000 ca         1 8TA       0.524800
      4 C5           2.0350     0.0000     1.2020 ca         1 8TA      -0.247300
      5 C6           2.0630    -0.0020    -1.2870 cc         1 8TA      -0.376800
      6 C7           3.4620    -0.0020    -1.4490 cd         1 8TA       0.364200
      7 C8           1.5030    -0.0120    -2.5510 cd         1 8TA       0.061500
      8 C10         -1.7810    -0.5400    -3.7870 cd         1 8TA      -0.203500
      9 C1           1.3360     0.0000     2.3940 ca         1 8TA      -0.085000
     10 C2          -0.0520     0.0010     2.3480 ca         1 8TA      -0.266300
     11 C3          -0.6910     0.0010     1.1230 ca         1 8TA       0.429200
     12 N2           3.7250    -0.0040    -2.7290 nc         1 8TA      -0.500800
     13 N4           0.1410    -0.0240    -2.8530 na         1 8TA       0.026800
     14 C9          -0.4620    -0.8180    -3.7870 cc         1 8TA      -0.125800
     15 C11         -2.0030     0.4660    -2.8240 cd         1 8TA      -0.203500
     16 C12         -0.8110     0.7610    -2.2660 cc         1 8TA      -0.125800
     17 H2           3.1190    -0.0000     1.2010 ha         1 8TA       0.136000
     18 H3           4.1940     0.0030    -0.6510 h4         1 8TA       0.055100
     19 H4          -2.5330    -1.0010    -4.4160 ha         1 8TA       0.149000
     20 H5           1.8580     0.0000     3.3430 ha         1 8TA       0.138000
     21 H6          -0.6290     0.0020     3.2650 ha         1 8TA       0.138000
     22 H7          -1.7730     0.0010     1.0850 h4         1 8TA       0.025100
     23 H8           0.0340    -1.5480    -4.4160 h4         1 8TA       0.172000
     24 H9          -2.9570     0.9150    -2.5750 ha         1 8TA       0.149000
     25 H10         -0.6380     1.4960    -1.4890 h4         1 8TA       0.172000
     26 H1           2.4270    -0.0150    -4.4360 hn         1 8TA       0.337700
@<TRIPOS>BOND
     1    12     2 1
     2    12     6 2
     3     2     7 1
     4     6     5 1
     5     7     5 2
     6     7    13 1
     7    16    13 1
     8    16    15 2
     9     5     3 1
    10    13    14 1
    11    15     8 1
    12    14     8 2
    13     4     3 ar
    14     4     9 ar
    15     3     1 ar
    16     9    10 ar
    17     1    11 ar
    18    10    11 ar
    19     2    26 1
    20     4    17 1
    21     6    18 1
    22     8    19 1
    23     9    20 1
    24    10    21 1
    25    11    22 1
    26    14    23 1
    27    15    24 1
    28    16    25 1
@<TRIPOS>SUBSTRUCTURE
     1 8TA         1 TEMP              0 ****  ****    0 ROOT
