@<TRIPOS>MOLECULE
molecule
   70    73     1     0     0
SMALL
bcc


@<TRIPOS>ATOM
      1 C10          0.0000     0.0000     0.0000 c3         1 8TC      -0.053700
      2 C13         -2.0580    -1.0270     0.9480 c3         1 8TC      -0.104800
      3 C15          3.6700     3.1000    -0.9100 c3         1 8TC      -0.082100
      4 C17          2.0750    -1.2520    -0.6750 c3         1 8TC      -0.091100
      5 C20         -2.2080     0.2100     1.8140 c          1 8TC       0.577100
      6 C21         -2.8620     1.4350     1.2180 c3         1 8TC      -0.027200
      7 C22         -2.2970     1.6830    -0.1640 c          1 8TC       0.598100
      8 C24         -2.5760     2.6500     2.1070 c3         1 8TC      -0.115100
      9 C26         -4.8370     1.2190    -3.6850 c3         1 8TC       0.136700
     10 C01          3.5250     0.1290     1.5110 c3         1 8TC      -0.107400
     11 C02          3.9550     1.4600     0.9050 c3         1 8TC       0.158100
     12 C03          3.4650     1.6110    -0.5360 c3         1 8TC      -0.047000
     13 C04          1.9960     1.2880    -0.6670 c3         1 8TC      -0.049700
     14 C05          1.5290     0.0000     0.0000 c3         1 8TC      -0.037000
     15 C06          2.0040     0.0000     1.4630 c3         1 8TC      -0.074400
     16 C07          1.4970     1.3260    -2.1100 c3         1 8TC      -0.070400
     17 C08         -0.0350     1.4430    -2.0680 c3         1 8TC      -0.096400
     18 C09         -0.6470     0.2390    -1.3540 c3         1 8TC      -0.016000
     19 C11         -2.1510     0.5120    -1.1130 c3         1 8TC      -0.149800
     20 C12         -2.7080    -0.7090    -0.3890 c2         1 8TC      -0.120400
     21 C14         -0.5570    -1.2440     0.6870 c3         1 8TC      -0.066400
     22 C16          4.3440     0.7850    -1.4750 c3         1 8TC      -0.082100
     23 O01          5.3830     1.5560     0.9300 oh         1 8TC      -0.606800
     24 C18         -0.5580    -0.9840    -2.2740 c3         1 8TC      -0.082100
     25 C19         -3.6850    -1.4310    -0.8840 c2         1 8TC      -0.180000
     26 O02         -1.8110     0.2150     2.9570 o          1 8TC      -0.504100
     27 O03         -1.9880     2.8040    -0.4990 o          1 8TC      -0.491100
     28 C23         -2.6910    -2.2540     1.6070 c3         1 8TC      -0.071100
     29 O04         -4.2750     1.2380     1.1340 oh         1 8TC      -0.565800
     30 C25         -2.8810     0.7480    -2.4080 c          1 8TC       0.661100
     31 O05         -2.2800     0.7080    -3.4560 o          1 8TC      -0.533000
     32 O06         -4.1990     1.0030    -2.3990 os         1 8TC      -0.416900
     33 H1          -0.2950     0.8390     0.6190 hc         1 8TC       0.033700
     34 H2           2.9500     3.7090    -0.3780 hc         1 8TC       0.038033
     35 H3           4.6730     3.4060    -0.6370 hc         1 8TC       0.038033
     36 H4           3.5320     3.2270    -1.9770 hc         1 8TC       0.038033
     37 H5           1.5230    -2.1180    -0.3310 hc         1 8TC       0.041700
     38 H6           1.9700    -1.1590    -1.7490 hc         1 8TC       0.041700
     39 H7           3.1230    -1.3700    -0.4240 hc         1 8TC       0.041700
     40 H8          -3.0360     3.5300     1.6750 hc         1 8TC       0.060367
     41 H9          -2.9840     2.4770     3.0960 hc         1 8TC       0.060367
     42 H10         -1.5060     2.8000     2.1800 hc         1 8TC       0.060367
     43 H11         -5.8970     1.3900    -3.5390 h1         1 8TC       0.051033
     44 H12         -4.3950     2.0840    -4.1670 h1         1 8TC       0.051033
     45 H13         -4.6950     0.3460    -4.3110 h1         1 8TC       0.051033
     46 H14          3.8550     0.0820     2.5420 hc         1 8TC       0.050700
     47 H15          3.9710    -0.6810     0.9480 hc         1 8TC       0.050700
     48 H16          3.5370     2.2630     1.5000 h1         1 8TC       0.027700
     49 H17          1.4760     2.0880    -0.1540 hc         1 8TC       0.044700
     50 H18          1.5560     0.8360     1.9860 hc         1 8TC       0.045700
     51 H19          1.7080    -0.9280     1.9370 hc         1 8TC       0.045700
     52 H20          1.9160     2.1850    -2.6200 hc         1 8TC       0.050700
     53 H21          1.7810     0.4140    -2.6200 hc         1 8TC       0.050700
     54 H22         -0.4160     1.4880    -3.0810 hc         1 8TC       0.071700
     55 H23         -0.3080     2.3470    -1.5370 hc         1 8TC       0.071700
     56 H24         -0.4200    -2.1050     0.0450 hc         1 8TC       0.065200
     57 H25         -0.0430    -1.3990     1.6280 hc         1 8TC       0.065200
     58 H26          5.3160     1.2540    -1.5660 hc         1 8TC       0.038033
     59 H27          3.8770     0.7300    -2.4510 hc         1 8TC       0.038033
     60 H28          4.4610    -0.2140    -1.0740 hc         1 8TC       0.038033
     61 H29          5.6620     1.8880     1.7670 ho         1 8TC       0.399000
     62 H30         -0.0070    -1.7720    -1.7740 hc         1 8TC       0.044033
     63 H31         -0.0470    -0.7110    -3.1890 hc         1 8TC       0.044033
     64 H32         -1.5560    -1.3340    -2.5080 hc         1 8TC       0.044033
     65 H33         -4.1220    -1.1680    -1.8400 ha         1 8TC       0.126500
     66 H34         -4.0570    -2.2880    -0.3360 ha         1 8TC       0.126500
     67 H35         -2.2120    -2.4400     2.5600 hc         1 8TC       0.048700
     68 H36         -2.5610    -3.1170     0.9640 hc         1 8TC       0.048700
     69 H37         -3.7480    -2.0760     1.7620 hc         1 8TC       0.048700
     70 H38         -4.7070     1.7920     1.7620 ho         1 8TC       0.418000
@<TRIPOS>BOND
     1    23    11 1   
     2    22    12 1   
     3    10    11 1   
     4    10    15 1   
     5    11    12 1   
     6    12     3 1   
     7    12    13 1   
     8     4    14 1   
     9    15    14 1   
    10    14    13 1   
    11    14     1 1   
    12    13    16 1   
    13    16    17 1   
    14     1    21 1   
    15     1    18 1   
    16    21     2 1   
    17    24    18 1   
    18    17    18 1   
    19    18    19 1   
    20     2    28 1   
    21     2     5 1   
    22     2    20 1   
    23    26     5 2   
    24     5     6 1   
    25    19    20 1   
    26    19     7 1   
    27    19    30 1   
    28    20    25 2   
    29     8     6 1   
    30     7     6 1   
    31     7    27 2   
    32     6    29 1   
    33    31    30 2   
    34    30    32 1   
    35    32     9 1   
    36     1    33 1   
    37     3    34 1   
    38     3    35 1   
    39     3    36 1   
    40     4    37 1   
    41     4    38 1   
    42     4    39 1   
    43     8    40 1   
    44     8    41 1   
    45     8    42 1   
    46     9    43 1   
    47     9    44 1   
    48     9    45 1   
    49    10    46 1   
    50    10    47 1   
    51    11    48 1   
    52    13    49 1   
    53    15    50 1   
    54    15    51 1   
    55    16    52 1   
    56    16    53 1   
    57    17    54 1   
    58    17    55 1   
    59    21    56 1   
    60    21    57 1   
    61    22    58 1   
    62    22    59 1   
    63    22    60 1   
    64    23    61 1   
    65    24    62 1   
    66    24    63 1   
    67    24    64 1   
    68    25    65 1   
    69    25    66 1   
    70    28    67 1   
    71    28    68 1   
    72    28    69 1   
    73    29    70 1   
@<TRIPOS>SUBSTRUCTURE
     1 8TC         1 TEMP              0 ****  ****    0 ROOT
