@<TRIPOS>MOLECULE
8TD
   24    25     1     0     0
SMALL
bcc


@<TRIPOS>ATOM
      1 N1           0.0000     0.0000     0.0000 n          1 8TD       0.045000
      2 N3          -0.8120     0.0010     5.4780 nv         1 8TD      -0.557200
      3 C4           0.7040     0.0000     2.1270 ca         1 8TD      -0.142400
      4 C5           0.5790     0.0010     3.5070 ca         1 8TD      -0.099000
      5 C6          -0.6820     0.0010     4.0860 ca         1 8TD       0.032600
      6 C7          -1.8170     0.0010     3.2840 ca         1 8TD      -0.111000
      7 C8          -1.6970     0.0080     1.9090 ca         1 8TD      -0.079000
      8 C1          -0.8580     0.0020    -1.1880 c3         1 8TD       0.086300
      9 C2           1.3460     0.0000     0.0000 c          1 8TD       0.582500
     10 N2           1.8000     0.0000     1.2680 n          1 8TD       0.045000
     11 C3           3.2070    -0.0040     1.6740 c3         1 8TD       0.086300
     12 C9          -0.4390     0.0060     1.3250 ca         1 8TD      -0.152400
     13 O1           2.0470    -0.0010    -0.9950 o          1 8TD      -0.723500
     14 H1          -0.8670    -0.8660     5.9760 hn         1 8TD       0.272300
     15 H2          -0.8390     0.8670     5.9790 hn         1 8TD       0.272300
     16 H3           1.4610    -0.0740     4.1310 ha         1 8TD       0.112000
     17 H4          -2.8000    -0.0050     3.7390 ha         1 8TD       0.111000
     18 H5          -2.5840     0.0080     1.2870 ha         1 8TD       0.106000
     19 H6          -0.2420    -0.0070    -2.0790 h1         1 8TD       0.019033
     20 H7          -1.4900    -0.8780    -1.1780 h1         1 8TD       0.019033
     21 H8          -1.4770     0.8910    -1.1860 h1         1 8TD       0.019033
     22 H9           3.4030     0.8550     2.3040 h1         1 8TD       0.018700
     23 H10          3.8370     0.0420     0.7950 h1         1 8TD       0.018700
     24 H11          3.4210    -0.9120     2.2250 h1         1 8TD       0.018700
@<TRIPOS>BOND
     1     1     8 1   
     2     1     9 1   
     3     1    12 1   
     4     2     5 1   
     5     2    14 1   
     6     2    15 1   
     7     3     4 ar  
     8     3    10 1   
     9     3    12 ar  
    10     4     5 ar  
    11     4    16 1   
    12     5     6 ar  
    13     6     7 ar  
    14     6    17 1   
    15     7    12 ar  
    16     7    18 1   
    17     8    19 1   
    18     8    20 1   
    19     8    21 1   
    20     9    10 1   
    21     9    13 2   
    22    10    11 1   
    23    11    22 1   
    24    11    23 1   
    25    11    24 1   
@<TRIPOS>SUBSTRUCTURE
     1 8TD         1 TEMP              0 ****  ****    0 ROOT
