@<TRIPOS>MOLECULE
molecule
   24    25     1     0     0
SMALL
bcc


@<TRIPOS>ATOM
      1 N1           0.0000     0.0000     0.0000 n          1 8TD      -0.361000
      2 N3          -0.8120     0.0010     5.4780 nv         1 8TD      -0.987200
      3 C4           0.7040     0.0000     2.1270 ca         1 8TD       0.002600
      4 C5           0.5790     0.0010     3.5070 ca         1 8TD      -0.143000
      5 C6          -0.6820     0.0010     4.0860 ca         1 8TD       0.166600
      6 C7          -1.8170     0.0010     3.2840 ca         1 8TD      -0.141000
      7 C8          -1.6970     0.0080     1.9090 ca         1 8TD      -0.120000
      8 C1          -0.8580     0.0020    -1.1880 c3         1 8TD       0.118300
      9 C2           1.3460     0.0000     0.0000 c          1 8TD       0.801500
     10 N2           1.8000     0.0000     1.2680 n          1 8TD      -0.361000
     11 C3           3.2070    -0.0040     1.6740 c3         1 8TD       0.118300
     12 C9          -0.4390     0.0060     1.3250 ca         1 8TD      -0.010400
     13 O1           2.0470    -0.0010    -0.9950 o          1 8TD      -0.667500
     14 H1          -0.8670    -0.8660     5.9760 hn         1 8TD       0.428300
     15 H2          -0.8390     0.8670     5.9790 hn         1 8TD       0.428300
     16 H3           1.4610    -0.0740     4.1310 ha         1 8TD       0.140000
     17 H4          -2.8000    -0.0050     3.7390 ha         1 8TD       0.141000
     18 H5          -2.5840     0.0080     1.2870 ha         1 8TD       0.135000
     19 H6          -0.2420    -0.0070    -2.0790 h1         1 8TD       0.052033
     20 H7          -1.4900    -0.8780    -1.1780 h1         1 8TD       0.052033
     21 H8          -1.4770     0.8910    -1.1860 h1         1 8TD       0.052033
     22 H9           3.4030     0.8550     2.3040 h1         1 8TD       0.052367
     23 H10          3.8370     0.0420     0.7950 h1         1 8TD       0.052367
     24 H11          3.4210    -0.9120     2.2250 h1         1 8TD       0.052367
@<TRIPOS>BOND
     1     2     5 1   
     2     6     5 ar  
     3     6     7 ar  
     4     5     4 ar  
     5     7    12 ar  
     6     4     3 ar  
     7    12     3 ar  
     8    12     1 1   
     9     3    10 1   
    10     1     8 1   
    11     1     9 1   
    12    10     9 1   
    13    10    11 1   
    14     9    13 2   
    15     2    14 1   
    16     2    15 1   
    17     4    16 1   
    18     6    17 1   
    19     7    18 1   
    20     8    19 1   
    21     8    20 1   
    22     8    21 1   
    23    11    22 1   
    24    11    23 1   
    25    11    24 1   
@<TRIPOS>SUBSTRUCTURE
     1 8TD         1 TEMP              0 ****  ****    0 ROOT
