@<TRIPOS>MOLECULE
8TG
   23    24     1     0     0
SMALL
bcc


@<TRIPOS>ATOM
      1 N1           0.0000     0.0000     0.0000 n          1 8TG       0.088000
      2 C4           1.3120     0.0020    -2.4730 cc         1 8TG      -0.005200
      3 C5           2.0750     0.0010    -1.2240 ca         1 8TG      -0.150800
      4 C6           3.4730     0.0030    -1.2300 ca         1 8TG       0.060000
      5 C7           4.1560     0.0030    -0.0470 ca         1 8TG      -0.469200
      6 C8           3.4730     0.0010     1.1630 ca         1 8TG       0.116100
      7 C10          1.3790     0.0000     0.0000 ca         1 8TG      -0.009400
      8 C1          -0.7220    -0.0010     1.2750 c3         1 8TG       0.031300
      9 C2          -0.6910     0.0060    -1.1530 c          1 8TG       0.600700
     10 C3          -0.0420     0.0070    -2.4060 cd         1 8TG      -0.204200
     11 C9           2.0940     0.0000     1.1920 ca         1 8TG      -0.160000
     12 Br1          4.4440     0.0020     2.7860 br         1 8TG      -0.028100
     13 N2           5.6370     0.0040    -0.0530 no         1 8TG       1.050200
     14 O1           6.2410     0.0060    -1.1110 o          1 8TG      -0.445500
     15 O2           6.2500     0.0020     0.9990 o          1 8TG      -0.445500
     16 O3          -1.9100     0.0100    -1.1160 o          1 8TG      -0.669500
     17 H1           1.8190     0.0030    -3.4310 ha         1 8TG       0.117000
     18 H2           4.0130     0.0050    -2.1690 ha         1 8TG       0.138000
     19 H3          -0.4590     0.8850     1.8400 h1         1 8TG       0.033700
     20 H4          -0.4540    -0.8840     1.8410 h1         1 8TG       0.033700
     21 H5          -1.7890    -0.0040     1.0850 h1         1 8TG       0.033700
     22 H6          -0.6280     0.0120    -3.3180 ha         1 8TG       0.141000
     23 H7           1.5700    -0.0020     2.1410 ha         1 8TG       0.142000
@<TRIPOS>BOND
     1     1     7 1   
     2     1     8 1   
     3     1     9 1   
     4     2     3 1   
     5     2    10 2   
     6     2    17 1   
     7     3     4 ar  
     8     3     7 ar  
     9     4     5 ar  
    10     4    18 1   
    11     5     6 ar  
    12     5    13 1   
    13     6    11 ar  
    14     6    12 1   
    15     7    11 ar  
    16     8    19 1   
    17     8    20 1   
    18     8    21 1   
    19     9    10 1   
    20     9    16 2   
    21    10    22 1   
    22    11    23 1   
    23    13    14 1   
    24    13    15 1   
@<TRIPOS>SUBSTRUCTURE
     1 8TG         1 TEMP              0 ****  ****    0 ROOT
