@<TRIPOS>MOLECULE
molecule
   23    24     1     0     0
SMALL
bcc


@<TRIPOS>ATOM
      1 N1           0.0000     0.0000     0.0000 n          1 8TG      -0.332000
      2 C4           1.3120     0.0020    -2.4730 cc         1 8TG      -0.041200
      3 C5           2.0750     0.0010    -1.2240 ca         1 8TG      -0.135800
      4 C6           3.4730     0.0030    -1.2300 ca         1 8TG      -0.006000
      5 C7           4.1560     0.0030    -0.0470 ca         1 8TG      -0.180200
      6 C8           3.4730     0.0010     1.1630 ca         1 8TG       0.058100
      7 C10          1.3790     0.0000     0.0000 ca         1 8TG       0.125600
      8 C1          -0.7220    -0.0010     1.2750 c3         1 8TG       0.072300
      9 C2          -0.6910     0.0060    -1.1530 c          1 8TG       0.693700
     10 C3          -0.0420     0.0070    -2.4060 cd         1 8TG      -0.222200
     11 C9           2.0940     0.0000     1.1920 ca         1 8TG      -0.164000
     12 Br1          4.4440     0.0020     2.7860 br         1 8TG      -0.010100
     13 N2           5.6370     0.0040    -0.0530 no         1 8TG       0.294200
     14 O1           6.2410     0.0060    -1.1110 o          1 8TG      -0.195500
     15 O2           6.2500     0.0020     0.9990 o          1 8TG      -0.195500
     16 O3          -1.9100     0.0100    -1.1160 o          1 8TG      -0.625500
     17 H1           1.8190     0.0030    -3.4310 ha         1 8TG       0.153000
     18 H2           4.0130     0.0050    -2.1690 ha         1 8TG       0.177000
     19 H3          -0.4590     0.8850     1.8400 h1         1 8TG       0.064033
     20 H4          -0.4540    -0.8840     1.8410 h1         1 8TG       0.064033
     21 H5          -1.7890    -0.0040     1.0850 h1         1 8TG       0.064033
     22 H6          -0.6280     0.0120    -3.3180 ha         1 8TG       0.174000
     23 H7           1.5700    -0.0020     2.1410 ha         1 8TG       0.167000
@<TRIPOS>BOND
     1    14    13 1   
     2    15    13 1   
     3    13     5 1   
     4    12     6 1   
     5     5     6 ar  
     6     5     4 ar  
     7     6    11 ar  
     8     4     3 ar  
     9    11     7 ar  
    10     3     7 ar  
    11     3     2 1   
    12     7     1 1   
    13     2    10 2   
    14     1     8 1   
    15     1     9 1   
    16    10     9 1   
    17     9    16 2   
    18     2    17 1   
    19     4    18 1   
    20     8    19 1   
    21     8    20 1   
    22     8    21 1   
    23    10    22 1   
    24    11    23 1   
@<TRIPOS>SUBSTRUCTURE
     1 8TG         1 TEMP              0 ****  ****    0 ROOT
