@<TRIPOS>MOLECULE
molecule
   21    22     1     0     0
SMALL
bcc


@<TRIPOS>ATOM
      1 N1           0.0000     0.0000     0.0000 ns         1 8TJ      -0.581900
      2 C4          -2.9030     0.0000     2.2680 cc         1 8TJ      -0.051200
      3 C5          -4.2880     0.0040     2.0460 ca         1 8TJ      -0.215100
      4 C6          -5.3450     0.0060     2.9880 ca         1 8TJ      -0.043000
      5 C7          -6.6330     0.0110     2.5340 ca         1 8TJ      -0.265300
      6 C8          -6.8820     0.0130     1.1690 ca         1 8TJ       0.448200
      7 C1           1.4650     0.0000     0.0000 c3         1 8TJ       0.105300
      8 C2          -0.6740     0.0000     1.1670 c          1 8TJ       0.700300
      9 C3          -2.1430    -0.0010     1.1680 cd         1 8TJ      -0.118600
     10 N2          -5.8960     0.0110     0.3010 nb         1 8TJ      -0.668000
     11 C9          -4.6180     0.0070     0.6840 ca         1 8TJ       0.498600
     12 S1          -3.1410    -0.0030    -0.2750 ss         1 8TJ      -0.150900
     13 O1          -0.0650     0.0020     2.2210 o          1 8TJ      -0.597100
     14 H1          -0.5000     0.0130    -0.8670 hn         1 8TJ       0.315500
     15 H3          -5.1360     0.0040     4.0510 ha         1 8TJ       0.144000
     16 H4          -7.4580     0.0130     3.2370 ha         1 8TJ       0.143000
     17 H5          -7.9050     0.0180     0.8130 h4         1 8TJ       0.030100
     18 H6           1.8270    -0.8840     0.5120 h1         1 8TJ       0.044033
     19 H7           1.8270    -0.0020    -1.0210 h1         1 8TJ       0.044033
     20 H8           1.8270     0.8850     0.5090 h1         1 8TJ       0.044033
     21 H2          -2.4770    -0.0020     3.2640 ha         1 8TJ       0.172000
@<TRIPOS>BOND
     1     5     4 ar  
     2     5     6 ar  
     3     4     3 ar  
     4     6    10 ar  
     5     3     2 1   
     6     3    11 ar  
     7    10    11 ar  
     8     2     9 2   
     9    11    12 1   
    10     9    12 1   
    11     9     8 1   
    12     1     8 1   
    13     1     7 1   
    14     8    13 2   
    15     1    14 1   
    16     2    21 1   
    17     4    15 1   
    18     5    16 1   
    19     6    17 1   
    20     7    18 1   
    21     7    19 1   
    22     7    20 1   
@<TRIPOS>SUBSTRUCTURE
     1 8TJ         1 TEMP              0 ****  ****    0 ROOT
