@<TRIPOS>MOLECULE
8TK
   47    51     1     0     0
SMALL
bcc


@<TRIPOS>ATOM
      1 C1           0.0000     0.0000     0.0000 c3         1 8TK      -0.057000
      2 C2           1.5070     0.0000     0.0000 c2         1 8TK      -0.206000
      3 C3           2.1770     0.0000     1.1390 c2         1 8TK      -0.278000
      4 N6           2.2030    -0.0050    -1.1860 n          1 8TK       0.347000
      5 C7           1.6720    -0.0100    -2.4410 c2         1 8TK       0.235000
      6 C9           2.4890    -0.0150    -3.5760 c2         1 8TK      -0.173000
      7 C10          3.8790    -0.0150    -3.4340 c2         1 8TK       0.012000
      8 C11          4.4070    -0.0100    -2.1530 c2         1 8TK      -0.146000
      9 C12          4.7810    -0.0220    -4.6410 c3         1 8TK       0.011000
     10 C14          5.5740    -1.3290    -4.6780 c3         1 8TK      -0.134000
     11 C16          6.2590     1.6310    -5.7170 c3         1 8TK       0.158000
     12 C20          6.4800     1.6020    -8.0120 c2         1 8TK       0.082000
     13 C27          1.5030     1.0500    -7.0420 ca         1 8TK      -0.101500
     14 C30          1.1310    -1.1170    -5.3520 ca         1 8TK      -0.116000
     15 S4           3.8890    -0.0010     0.6810 ss         1 8TK       0.273000
     16 C5           3.5610    -0.0050    -1.0590 c2         1 8TK      -0.244000
     17 O8           0.4590    -0.0100    -2.5770 o          1 8TK      -0.413000
     18 N15          5.7080     1.1090    -4.5630 n7         1 8TK      -0.099000
     19 C17          7.1560     2.7150    -5.6580 c2         1 8TK      -0.218000
     20 C18          7.6880     3.1980    -6.8680 c2         1 8TK       0.066000
     21 N19          7.3230     2.6140    -8.0070 n2         1 8TK      -0.201000
     22 N21          5.9550     1.1160    -6.9060 n2         1 8TK      -0.280000
     23 N22          8.5720     4.2580    -6.8750 n8         1 8TK       0.039000
     24 C23          7.5160     3.3070    -4.4050 c1         1 8TK      -0.071000
     25 N24          7.8130     3.7900    -3.4210 n1         1 8TK      -0.055000
     26 C25          1.8830    -0.0220    -4.9260 ca         1 8TK       0.000000
     27 C26          2.0660     1.0650    -5.7820 ca         1 8TK      -0.116000
     28 C28          0.7540    -0.0370    -7.4550 ca         1 8TK      -0.099000
     29 C29          0.5690    -1.1170    -6.6110 ca         1 8TK      -0.101500
     30 H1          -0.2680     0.5500     0.8940 hc         1 8TK       0.074333
     31 H2          -0.2730     0.7770    -0.7040 hc         1 8TK       0.074333
     32 H3          -0.3020    -1.0240    -0.1850 hc         1 8TK       0.074333
     33 H4           1.5370     0.3900     1.9210 h4         1 8TK       0.179000
     34 H6           5.4890    -0.0650    -2.1260 ha         1 8TK       0.150000
     35 H7           4.1820     0.0630    -5.5390 h1         1 8TK       0.104000
     36 H8           5.6440    -1.6790    -5.7010 hc         1 8TK       0.056000
     37 H9           6.5500    -1.2170    -4.2210 hc         1 8TK       0.056000
     38 H10          5.2280    -2.3060    -4.3600 hc         1 8TK       0.056000
     39 H11          6.1920     1.0600    -8.9050 h5         1 8TK       0.138000
     40 H12          2.1290     1.8140    -7.4880 ha         1 8TK       0.109500
     41 H13          0.4730    -1.8200    -4.8550 ha         1 8TK       0.122000
     42 H14          5.5930     1.8480    -5.2280 DU         1 8TK       0.153000
     43 H15          8.3250     5.1330    -6.4570 hn         1 8TK       0.096000
     44 H16          9.3050     3.9880    -7.5010 hn         1 8TK       0.096000
     45 H17          2.7200     1.6770    -5.1730 ha         1 8TK       0.122000
     46 H18          0.3230    -0.4370    -8.3650 ha         1 8TK       0.114000
     47 H19         -0.2700    -1.7120    -6.9520 ha         1 8TK       0.109500
@<TRIPOS>BOND
     1     1     2 1   
     2     1    30 1   
     3     1    31 1   
     4     1    32 1   
     5     2     3 1   
     6     2     4 1   
     7     3    15 1   
     8     3    33 1   
     9     4     5 1   
    10     4    16 1   
    11     5     6 1   
    12     5    17 1   
    13     6     7 1   
    14     6    26 1   
    15     7     8 1   
    16     7     9 1   
    17     8    16 1   
    18     8    34 1   
    19     9    10 1   
    20     9    18 1   
    21     9    35 1   
    22    10    36 1   
    23    10    37 1   
    24    10    38 1   
    25    11    18 1   
    26    11    19 1   
    27    11    22 1   
    28    11    42 1   
    29    12    21 1   
    30    12    22 1   
    31    12    39 1   
    32    13    27 1   
    33    13    28 1   
    34    13    40 1   
    35    14    26 1   
    36    14    29 1   
    37    14    41 1   
    38    15    16 1   
    39    18    42 1   
    40    19    20 1   
    41    19    24 1   
    42    20    21 1   
    43    20    23 1   
    44    23    43 1   
    45    23    44 1   
    46    24    25 1   
    47    26    27 1   
    48    27    45 1   
    49    28    29 1   
    50    28    46 1   
    51    29    47 1   
@<TRIPOS>SUBSTRUCTURE
     1 8TK         1 TEMP              0 ****  ****    0 ROOT
