@<TRIPOS>MOLECULE
molecule
   64    65     1     0     0
SMALL
bcc


@<TRIPOS>ATOM
      1 N1           0.0000     0.0000     0.0000 n          1 8TL      -0.374300
      2 N3          -1.4350    -3.3940     0.5130 n          1 8TL      -0.477800
      3 C4           3.4690    -0.2390     1.2670 c3         1 8TL      -0.065400
      4 C5           4.1440     0.9360     0.5570 c3         1 8TL      -0.095100
      5 C6          -0.6800     0.9640    -0.6510 c          1 8TL       0.781100
      6 C7          -0.8100     2.9390    -1.9850 c3         1 8TL       0.158100
      7 C8          -1.0900     4.1000    -1.0280 c3         1 8TL      -0.104600
      8 C10         -0.5340    -2.5840     2.6960 c3         1 8TL       0.053700
      9 C13         -2.1860    -4.4210    -0.2160 c3         1 8TL       0.101000
     10 C15         -1.9960    -6.5230    -1.5520 c3         1 8TL      -0.076700
     11 C17         -2.8790    -7.3000    -0.5740 c3         1 8TL      -0.089600
     12 C20         -1.0720     0.8270     6.7630 c3         1 8TL       0.006000
     13 C9          -0.0440     3.4570    -3.2050 c3         1 8TL      -0.104600
     14 O4          -0.0120     1.9330    -1.3060 os         1 8TL      -0.412900
     15 O3          -1.8950     0.9590    -0.6480 o          1 8TL      -0.599000
     16 O1           1.4200     0.0000     0.0000 os         1 8TL      -0.168900
     17 C1           1.9590     0.0000     1.3280 c3         1 8TL       0.048100
     18 C2           1.3060    -1.0990     2.1210 c          1 8TL       0.680500
     19 O2           1.9180    -1.5990     3.0410 o          1 8TL      -0.634500
     20 N2           0.0750    -1.5450     1.8460 n          1 8TL      -0.501800
     21 C3          -0.7190    -1.0530     0.7170 c3         1 8TL       0.308100
     22 C11         -0.9880    -2.2240    -0.2310 c3         1 8TL       0.078000
     23 C14         -1.2120    -5.4510    -0.7910 c3         1 8TL      -0.095400
     24 C16         -1.0180    -7.4840    -2.2320 c3         1 8TL      -0.089600
     25 C12         -1.2080    -3.5980     1.8120 c          1 8TL       0.691500
     26 O5          -1.5620    -4.6480     2.3030 o          1 8TL      -0.636500
     27 C18         -1.5660    -1.9450     3.6270 c3         1 8TL      -0.074400
     28 C19         -0.8600    -0.9990     4.6000 c3         1 8TL       0.018700
     29 S1          -2.0850    -0.2410     5.7020 ss         1 8TL      -0.357200
     30 H1           3.6690    -1.1530     0.7210 hc         1 8TL       0.072200
     31 H2           3.8620    -0.3270     2.2730 hc         1 8TL       0.072200
     32 H3           5.2190     0.8550     0.6660 hc         1 8TL       0.041700
     33 H4           3.8050     1.8660     0.9970 hc         1 8TL       0.041700
     34 H5           3.8850     0.9190    -0.4950 hc         1 8TL       0.041700
     35 H6          -1.7470     2.4940    -2.2980 h1         1 8TL       0.073700
     36 H7          -1.8000     3.7830    -0.2730 hc         1 8TL       0.049200
     37 H8          -0.1670     4.4040    -0.5500 hc         1 8TL       0.049200
     38 H9          -1.5010     4.9340    -1.5830 hc         1 8TL       0.049200
     39 H10          0.2380    -3.0700     3.2810 h1         1 8TL       0.129700
     40 H11         -2.8750    -4.9120     0.4590 h1         1 8TL       0.064200
     41 H12         -2.7400    -3.9570    -1.0240 h1         1 8TL       0.064200
     42 H13         -2.6150    -6.0790    -2.3230 hc         1 8TL       0.044700
     43 H14         -2.3340    -7.4720     0.3460 hc         1 8TL       0.036033
     44 H15         -3.7740    -6.7280    -0.3620 hc         1 8TL       0.036033
     45 H16         -3.1550    -8.2510    -1.0140 hc         1 8TL       0.036033
     46 H17         -0.2930     0.2370     7.2300 h1         1 8TL       0.060033
     47 H18         -0.6220     1.6090     6.1640 h1         1 8TL       0.060033
     48 H19         -1.6960     1.2720     7.5290 h1         1 8TL       0.060033
     49 H20          0.2000     2.6270    -3.8570 hc         1 8TL       0.049200
     50 H21          0.8680     3.9420    -2.8800 hc         1 8TL       0.049200
     51 H22         -0.6600     4.1690    -3.7420 hc         1 8TL       0.049200
     52 H23          1.7570     0.9540     1.8000 h1         1 8TL       0.077700
     53 H24         -1.6610    -0.6610     1.0830 h2         1 8TL       0.105700
     54 H25         -0.0760    -2.4680    -0.7630 h1         1 8TL       0.068200
     55 H26         -1.7560    -1.9390    -0.9400 h1         1 8TL       0.068200
     56 H27         -0.6580    -5.9140     0.0160 hc         1 8TL       0.052200
     57 H28         -0.5230    -4.9600    -1.4670 hc         1 8TL       0.052200
     58 H29         -0.3700    -6.9290    -2.8980 hc         1 8TL       0.036033
     59 H30         -1.5730    -8.2220    -2.7990 hc         1 8TL       0.036033
     60 H31         -0.4200    -7.9830    -1.4790 hc         1 8TL       0.036033
     61 H32         -2.2860    -1.3870     3.0390 hc         1 8TL       0.072700
     62 H33         -2.0780    -2.7200     4.1840 hc         1 8TL       0.072700
     63 H34         -0.3480    -0.2240     4.0420 h1         1 8TL       0.063700
     64 H35         -0.1410    -1.5560     5.1880 h1         1 8TL       0.063700
@<TRIPOS>BOND
     1    24    10 1
     2     7     6 1
     3    11    10 1
     4    10    23 1
     5     6    13 1
     6     6    14 1
     7    23     9 1
     8     9     2 1
     9    14     5 1
    10    15     5 2
    11     5     1 1
    12     2    22 1
    13     2    25 1
    14    22    21 1
    15    26    25 2
    16     1    16 1
    17     1    21 1
    18    25     8 1
    19    16    17 1
    20    21    20 1
    21     4     3 1
    22    20     8 1
    23    20    18 1
    24     8    27 1
    25    17    18 1
    26    17     3 1
    27    18    19 2
    28    27    28 1
    29    28    29 1
    30    29    12 1
    31     3    30 1
    32     3    31 1
    33     4    32 1
    34     4    33 1
    35     4    34 1
    36     6    35 1
    37     7    36 1
    38     7    37 1
    39     7    38 1
    40     8    39 1
    41     9    40 1
    42     9    41 1
    43    10    42 1
    44    11    43 1
    45    11    44 1
    46    11    45 1
    47    12    46 1
    48    12    47 1
    49    12    48 1
    50    13    49 1
    51    13    50 1
    52    13    51 1
    53    17    52 1
    54    21    53 1
    55    22    54 1
    56    22    55 1
    57    23    56 1
    58    23    57 1
    59    24    58 1
    60    24    59 1
    61    24    60 1
    62    27    61 1
    63    27    62 1
    64    28    63 1
    65    28    64 1
@<TRIPOS>SUBSTRUCTURE
     1 8TL         1 TEMP              0 ****  ****    0 ROOT
