@<TRIPOS>MOLECULE
8TM
   32    35     1     0     0
SMALL
bcc


@<TRIPOS>ATOM
      1 C1           0.0000     0.0000     0.0000 ca         1 8TM      -0.110000
      2 C2           1.3920     0.0000     0.0000 ca         1 8TM      -0.064000
      3 C3          -0.7000    -0.0010     1.1710 ca         1 8TM      -0.057000
      4 C4           2.0960     0.0000     1.1680 ca         1 8TM      -0.092000
      5 C5          -2.1230     0.8730     5.9500 ca         1 8TM      -0.074000
      6 C6          -3.9140    -0.5220     5.1530 ca         1 8TM      -0.074000
      7 C7          -2.7580     0.9890     7.1710 ca         1 8TM      -0.080500
      8 C8          -4.5480    -0.4060     6.3730 ca         1 8TM      -0.080500
      9 C9           1.3770     0.0000     4.6930 c2         1 8TM       0.013000
     10 C10         -0.0080    -0.0010     2.3880 ca         1 8TM      -0.189000
     11 C11          1.4080    -0.0010     2.3900 ca         1 8TM       0.040000
     12 C12         -2.7000     0.1170     4.9370 ca         1 8TM      -0.068000
     13 C13         -3.9720     0.3490     7.3860 ca         1 8TM      -0.170000
     14 C14         -0.6790    -0.0010     3.6360 c3         1 8TM       0.049000
     15 C15         -6.5340    -0.0390     8.7350 c3         1 8TM       0.280000
     16 N16          2.0510    -0.0000     3.5670 n2         1 8TM      -0.126000
     17 N17          0.0550    -0.0010     4.7410 n2         1 8TM      -0.218000
     18 N18         -2.0570    -0.0010     3.6990 nu         1 8TM       0.029000
     19 F19         -6.5680    -1.3350     8.3100 f          1 8TM      -0.116333
     20 F20         -7.1760     0.7540     7.8290 f          1 8TM      -0.116333
     21 F21         -7.1550     0.0590     9.9460 f          1 8TM      -0.116333
     22 S22         -4.8080     0.4890     8.9310 ss         1 8TM       0.110000
     23 H1          -0.5420    -0.0000    -0.9380 ha         1 8TM       0.108000
     24 H2           1.9330     0.0000    -0.9380 ha         1 8TM       0.105000
     25 H3          -1.7830    -0.0000     1.1550 ha         1 8TM       0.120000
     26 H4           3.1790    -0.0000     1.1480 ha         1 8TM       0.124000
     27 H5          -1.1760     1.3720     5.7820 ha         1 8TM       0.129000
     28 H7          -2.3080     1.5790     7.9610 ha         1 8TM       0.121500
     29 H6          -4.3630    -1.1110     4.3630 ha         1 8TM       0.129000
     30 H8          -5.4950    -0.9050     6.5400 ha         1 8TM       0.121500
     31 H9           1.9050     0.0010     5.6390 h5         1 8TM       0.135000
     32 H18         -1.5180     0.7620     3.3410 DU         1 8TM       0.137000
@<TRIPOS>BOND
     1     1     2 1   
     2     1     3 1   
     3     1    23 1   
     4     2     4 1   
     5     2    24 1   
     6     3    10 1   
     7     3    25 1   
     8     4    11 1   
     9     4    26 1   
    10     5     7 1   
    11     5    12 1   
    12     5    27 1   
    13     6     8 1   
    14     6    12 1   
    15     6    29 1   
    16     7    13 1   
    17     7    28 1   
    18     8    13 1   
    19     8    30 1   
    20     9    16 1   
    21     9    17 1   
    22     9    31 1   
    23    10    11 1   
    24    10    14 1   
    25    11    16 1   
    26    12    18 1   
    27    13    22 1   
    28    14    17 1   
    29    14    18 1   
    30    14    32 1   
    31    15    19 1   
    32    15    20 1   
    33    15    21 1   
    34    15    22 1   
    35    18    32 1   
@<TRIPOS>SUBSTRUCTURE
     1 8TM         1 TEMP              0 ****  ****    0 ROOT
