@<TRIPOS>MOLECULE
molecule
   32    34     1     0     0
SMALL
bcc


@<TRIPOS>ATOM
      1 C1           0.0000     0.0000     0.0000 ca         1 8TM      -0.140000
      2 C2           1.3920     0.0000     0.0000 ca         1 8TM      -0.092000
      3 C3          -0.7000    -0.0010     1.1710 ca         1 8TM      -0.085000
      4 C4           2.0960     0.0000     1.1680 ca         1 8TM      -0.181300
      5 C5          -2.1230     0.8730     5.9500 ca         1 8TM      -0.093500
      6 C6          -3.9140    -0.5220     5.1530 ca         1 8TM      -0.093500
      7 C7          -2.7580     0.9890     7.1710 ca         1 8TM      -0.115500
      8 C8          -4.5480    -0.4060     6.3730 ca         1 8TM      -0.115500
      9 C9           1.3770     0.0000     4.6930 ca         1 8TM       0.713900
     10 C10         -0.0080    -0.0010     2.3880 ca         1 8TM      -0.318600
     11 C11          1.4080    -0.0010     2.3900 ca         1 8TM       0.471600
     12 C12         -2.7000     0.1170     4.9370 ca         1 8TM       0.070600
     13 C13         -3.9720     0.3490     7.3860 ca         1 8TM       0.036900
     14 C14         -0.6790    -0.0010     3.6360 ca         1 8TM       0.634200
     15 C15         -6.5340    -0.0390     8.7350 c3         1 8TM       0.720000
     16 N16          2.0510    -0.0000     3.5670 nb         1 8TM      -0.751000
     17 N17          0.0550    -0.0010     4.7410 nb         1 8TM      -0.832000
     18 N18         -2.0570    -0.0010     3.6990 nu         1 8TM      -0.633300
     19 F19         -6.5680    -1.3350     8.3100 f          1 8TM      -0.207300
     20 F20         -7.1760     0.7540     7.8290 f          1 8TM      -0.207300
     21 F21         -7.1550     0.0590     9.9460 f          1 8TM      -0.207300
     22 S22         -4.8080     0.4890     8.9310 ss         1 8TM      -0.241000
     23 H1          -0.5420    -0.0000    -0.9380 ha         1 8TM       0.137000
     24 H2           1.9330     0.0000    -0.9380 ha         1 8TM       0.137000
     25 H3          -1.7830    -0.0000     1.1550 ha         1 8TM       0.149000
     26 H4           3.1790    -0.0000     1.1480 ha         1 8TM       0.156000
     27 H5          -1.1760     1.3720     5.7820 ha         1 8TM       0.156000
     28 H7          -2.3080     1.5790     7.9610 ha         1 8TM       0.147500
     29 H6          -4.3630    -1.1110     4.3630 ha         1 8TM       0.156000
     30 H8          -5.4950    -0.9050     6.5400 ha         1 8TM       0.147500
     31 H9           1.9050     0.0010     5.6390 h5         1 8TM       0.060100
     32 H18         -1.5180     0.7620     3.3410 hn         1 8TM       0.421800
@<TRIPOS>BOND
     1     1     2 ar
     2     1     3 ar
     3     2     4 ar
     4     3    10 ar
     5     4    11 ar
     6     5     7 ar
     7     5    12 ar
     8     6     8 ar
     9     6    12 ar
    10     7    13 ar
    11     8    13 ar
    12     9    16 ar
    13     9    17 ar
    14    10    11 ar
    15    10    14 ar
    16    11    16 ar
    17    12    18 1
    18    13    22 1
    19    14    17 ar
    20    14    18 1
    21    15    19 1
    22    15    20 1
    23    15    21 1
    24    15    22 1
    25     1    23 1
    26     2    24 1
    27     3    25 1
    28     4    26 1
    29     5    27 1
    30     7    28 1
    31     6    29 1
    32     8    30 1
    33     9    31 1
    34    18    32 1
@<TRIPOS>SUBSTRUCTURE
     1 8TM         1 TEMP              0 ****  ****    0 ROOT
