@<TRIPOS>MOLECULE
8TN
   58    61     1     0     0
SMALL
bcc


@<TRIPOS>ATOM
      1 C1           4.8660     5.8600     2.1640 cg         1 8TN       0.258800
      2 C2           0.0000     0.0000     0.0000 ca         1 8TN      -0.123000
      3 C3           1.3790     0.0000     0.0000 ca         1 8TN      -0.088000
      4 C7           3.5760     5.7810     1.5490 ca         1 8TN      -0.388600
      5 C8           2.0750     0.0000     1.2100 ca         1 8TN      -0.005800
      6 C9          -0.0110     0.0070     2.4000 ca         1 8TN      -0.064300
      7 C10          2.6920     6.8770     1.5730 ca         1 8TN       0.586200
      8 C11          3.1550     4.6070     0.8940 ca         1 8TN       0.633200
      9 C12          5.6420     1.0560     0.7330 cc         1 8TN      -0.165000
     10 C13          7.7230    -2.0160     2.1610 cc         1 8TN      -0.005100
     11 C14          3.5550    -0.0010     1.2160 cd         1 8TN      -0.155400
     12 C15          4.2570     1.0960     0.7080 cc         1 8TN       0.003800
     13 C16          6.4100    -2.1470     2.2160 cd         1 8TN      -0.088600
     14 C19          5.7900    -3.3950     2.7890 c3         1 8TN      -0.012800
     15 C20          3.8200     2.4090    -1.3490 c3         1 8TN      -0.039100
     16 C21          0.2250    -2.0550     4.4610 c3         1 8TN       0.141100
     17 C22         -1.9700    -1.4060     5.2530 c3         1 8TN       0.141100
     18 C24          3.5280     2.2890     0.1480 c3         1 8TN       0.158700
     19 N25          5.8930     5.9040     2.6480 n1         1 8TN      -0.410800
     20 N26          1.5030     6.7540     0.9860 nb         1 8TN      -0.783000
     21 C4          -0.6950     0.0060     1.1970 ca         1 8TN      -0.102000
     22 C5           1.3690     0.0010     2.4130 ca         1 8TN      -0.092000
     23 C6           1.1520     5.6330     0.3900 ca         1 8TN       0.738900
     24 C17          6.2890    -0.0520     1.2480 cd         1 8TN      -0.012400
     25 C18          4.2530    -1.1030     1.7220 c          1 8TN       0.486500
     26 C23         -0.7750     0.0140     3.6990 c3         1 8TN       0.171100
     27 N27          1.9470     4.5840     0.3360 nb         1 8TN      -0.732000
     28 N28          5.6160    -1.1290     1.7420 n          1 8TN       0.440800
     29 N30          3.9790     3.5030     0.8320 nu         1 8TN      -0.475900
     30 N31         -1.0290    -1.3680     4.1250 n3         1 8TN      -0.487600
     31 O32          3.6290    -2.0550     2.1640 o          1 8TN      -0.675500
     32 S33          8.0120    -0.4270     1.4300 ss         1 8TN      -0.393800
     33 H1          -0.6840     0.3800    -0.7490 ha         1 8TN       0.113000
     34 H2           1.6790     0.1290    -1.0330 ha         1 8TN       0.111000
     35 H3           6.1530     1.9780     0.4840 ha         1 8TN       0.135000
     36 H4           8.4830    -2.2200     1.4170 h4         1 8TN       0.215000
     37 H6           6.1470    -3.8640     3.6990 hc         1 8TN       0.041367
     38 H7           4.8040    -3.1930     3.1900 hc         1 8TN       0.041367
     39 H8           5.7950    -4.3750     2.3270 hc         1 8TN       0.041367
     40 H9           4.3410     3.3400    -1.5340 hc         1 8TN       0.013033
     41 H10          3.2360     2.0590    -2.1920 hc         1 8TN       0.013033
     42 H11          4.4830     1.5930    -1.6120 hc         1 8TN       0.013033
     43 H12          0.4710    -2.9090     5.0810 h1         1 8TN       0.005867
     44 H13          1.0610    -1.3680     4.5230 h1         1 8TN       0.005867
     45 H14          0.3510    -2.5220     3.4920 h1         1 8TN       0.005867
     46 H15         -2.6380    -0.5590     5.1570 h1         1 8TN       0.005867
     47 H16         -1.5860    -1.3040     6.2610 h1         1 8TN       0.005867
     48 H17         -2.6040    -2.2830     5.2900 h1         1 8TN       0.005867
     49 H18          2.4630     2.1650     0.2990 h1         1 8TN       0.085700
     50 H19          3.8670     7.9210     2.7560 hn         1 8TN       0.284300
     51 H20          2.4560     8.8620     2.2100 hn         1 8TN       0.284300
     52 H21         -1.7260    -0.3260     1.2210 ha         1 8TN       0.116000
     53 H22          1.9560    -0.3310     3.2610 ha         1 8TN       0.128000
     54 H23          0.1420     5.7920     0.0320 h5         1 8TN       0.003100
     55 H24         -0.0410    -0.0070     4.4950 h1         1 8TN       0.023200
     56 H25         -1.4160     0.8600     3.9160 h1         1 8TN       0.023200
     57 H26          4.9740     3.4110     0.8890 hn         1 8TN       0.308800
     58 N29          3.0490     8.0560     2.1950 nv         1 8TN      -0.489500
@<TRIPOS>BOND
     1     1     4 1   
     2     1    19 3   
     3     2     3 ar  
     4     2    21 ar  
     5     2    33 1   
     6     3     5 ar  
     7     3    34 1   
     8     4     7 ar  
     9     4     8 ar  
    10     5    11 1   
    11     5    22 ar  
    12     6    21 ar  
    13     6    22 ar  
    14     6    26 1   
    15     7    20 ar  
    16     7    58 1   
    17     8    27 ar  
    18     8    29 1   
    19     9    12 1   
    20     9    24 2   
    21     9    35 1   
    22    10    13 2   
    23    10    32 1   
    24    10    36 1   
    25    11    12 2   
    26    11    25 1   
    27    12    18 1   
    28    13    14 1   
    29    13    28 1   
    30    14    37 1   
    31    14    38 1   
    32    14    39 1   
    33    15    18 1   
    34    15    40 1   
    35    15    41 1   
    36    15    42 1   
    37    16    30 1   
    38    16    43 1   
    39    16    44 1   
    40    16    45 1   
    41    17    30 1   
    42    17    46 1   
    43    17    47 1   
    44    17    48 1   
    45    18    29 1   
    46    18    49 1   
    47    20    23 ar  
    48    21    52 1   
    49    22    53 1   
    50    23    27 ar  
    51    23    54 1   
    52    24    28 1   
    53    24    32 1   
    54    25    28 1   
    55    25    31 2   
    56    26    30 1   
    57    26    55 1   
    58    26    56 1   
    59    29    57 1   
    60    50    58 1   
    61    51    58 1   
@<TRIPOS>SUBSTRUCTURE
     1 8TN         1 TEMP              0 ****  ****    0 ROOT
