@<TRIPOS>MOLECULE
molecule
   58    61     1     0     0
SMALL
bcc


@<TRIPOS>ATOM
      1 C1           4.8660     5.8600     2.1640 cg         1 8TN       0.257800
      2 C2           0.0000     0.0000     0.0000 ca         1 8TN      -0.150000
      3 C3           1.3790     0.0000     0.0000 ca         1 8TN      -0.109000
      4 C7           3.5760     5.7810     1.5490 ca         1 8TN      -0.415600
      5 C8           2.0750     0.0000     1.2100 ca         1 8TN      -0.018800
      6 C9          -0.0110     0.0070     2.4000 ca         1 8TN      -0.061300
      7 C10          2.6920     6.8770     1.5730 ca         1 8TN       0.770200
      8 C11          3.1550     4.6070     0.8940 ca         1 8TN       0.815200
      9 C12          5.6420     1.0560     0.7330 cd         1 8TN      -0.223000
     10 C13          7.7230    -2.0160     2.1610 cc         1 8TN      -0.072100
     11 C14          3.5550    -0.0010     1.2160 cc         1 8TN      -0.167400
     12 C15          4.2570     1.0960     0.7080 cd         1 8TN       0.020800
     13 C16          6.4100    -2.1470     2.2160 cd         1 8TN       0.069400
     14 C19          5.7900    -3.3950     2.7890 c3         1 8TN      -0.095800
     15 C20          3.8200     2.4090    -1.3490 c3         1 8TN      -0.133100
     16 C21          0.2250    -2.0550     4.4610 c3         1 8TN       0.119600
     17 C22         -1.9700    -1.4060     5.2530 c3         1 8TN       0.119600
     18 C24          3.5280     2.2890     0.1480 c3         1 8TN       0.259700
     19 N25          5.8930     5.9040     2.6480 n1         1 8TN      -0.391800
     20 N26          1.5030     6.7540     0.9860 nb         1 8TN      -0.861000
     21 C4          -0.6950     0.0060     1.1970 ca         1 8TN      -0.121000
     22 C5           1.3690     0.0010     2.4130 ca         1 8TN      -0.101000
     23 C6           1.1520     5.6330     0.3900 ca         1 8TN       0.774900
     24 C17          6.2890    -0.0520     1.2480 cc         1 8TN       0.149600
     25 C18          4.2530    -1.1030     1.7220 c          1 8TN       0.592500
     26 C23         -0.7750     0.0140     3.6990 c3         1 8TN       0.179100
     27 N27          1.9470     4.5840     0.3360 nb         1 8TN      -0.832000
     28 N28          5.6160    -1.1290     1.7420 n          1 8TN      -0.046200
     29 N30          3.9790     3.5030     0.8320 nu         1 8TN      -0.877900
     30 N31         -1.0290    -1.3680     4.1250 n3         1 8TN      -0.683600
     31 O32          3.6290    -2.0550     2.1640 o          1 8TN      -0.630500
     32 S33          8.0120    -0.4270     1.4300 ss         1 8TN      -0.315800
     33 H1          -0.6840     0.3800    -0.7490 ha         1 8TN       0.138000
     34 H2           1.6790     0.1290    -1.0330 ha         1 8TN       0.135000
     35 H3           6.1530     1.9780     0.4840 ha         1 8TN       0.154000
     36 H4           8.4830    -2.2200     1.4170 h4         1 8TN       0.232000
     37 H6           6.1470    -3.8640     3.6990 hc         1 8TN       0.074367
     38 H7           4.8040    -3.1930     3.1900 hc         1 8TN       0.074367
     39 H8           5.7950    -4.3750     2.3270 hc         1 8TN       0.074367
     40 H9           4.3410     3.3400    -1.5340 hc         1 8TN       0.045033
     41 H10          3.2360     2.0590    -2.1920 hc         1 8TN       0.045033
     42 H11          4.4830     1.5930    -1.6120 hc         1 8TN       0.045033
     43 H12          0.4710    -2.9090     5.0810 h1         1 8TN       0.033533
     44 H13          1.0610    -1.3680     4.5230 h1         1 8TN       0.033533
     45 H14          0.3510    -2.5220     3.4920 h1         1 8TN       0.033533
     46 H15         -2.6380    -0.5590     5.1570 h1         1 8TN       0.033533
     47 H16         -1.5860    -1.3040     6.2610 h1         1 8TN       0.033533
     48 H17         -2.6040    -2.2830     5.2900 h1         1 8TN       0.033533
     49 H18          2.4630     2.1650     0.2990 h1         1 8TN       0.111700
     50 H19          3.8670     7.9210     2.7560 hn         1 8TN       0.454300
     51 H20          2.4560     8.8620     2.2100 hn         1 8TN       0.454300
     52 H21         -1.7260    -0.3260     1.2210 ha         1 8TN       0.142000
     53 H22          1.9560    -0.3310     3.2610 ha         1 8TN       0.147000
     54 H23          0.1420     5.7920     0.0320 h5         1 8TN       0.070100
     55 H24         -0.0410    -0.0070     4.4950 h1         1 8TN       0.051200
     56 H25         -1.4160     0.8600     3.9160 h1         1 8TN       0.051200
     57 H26          4.9740     3.4110     0.8890 hn         1 8TN       0.457800
     58 N29          3.0490     8.0560     2.1950 nv         1 8TN      -0.978500
@<TRIPOS>BOND
     1    14    13 1
     2    10    13 2
     3    10    32 1
     4    13    28 1
     5    32    24 1
     6    28    24 1
     7    28    25 1
     8    24     9 2
     9    31    25 2
    10    25    11 1
    11     9    12 1
    12    17    30 1
    13    11    12 2
    14    11     5 1
    15    16    30 1
    16    30    26 1
    17    12    18 1
    18    22     5 ar
    19    22     6 ar
    20     5     3 ar
    21    26     6 1
    22    15    18 1
    23     6    21 ar
    24    18    29 1
    25     3     2 ar
    26    29     8 1
    27    21     2 ar
    28     8    27 ar
    29     8     4 ar
    30    19     1 3
    31     1     4 1
    32    27    23 ar
    33     4     7 ar
    34    23    20 ar
    35     7    20 ar
    36     7    58 1
    37     2    33 1
    38     3    34 1
    39     9    35 1
    40    10    36 1
    41    14    37 1
    42    14    38 1
    43    14    39 1
    44    15    40 1
    45    15    41 1
    46    15    42 1
    47    16    43 1
    48    16    44 1
    49    16    45 1
    50    17    46 1
    51    17    47 1
    52    17    48 1
    53    18    49 1
    54    58    50 1
    55    58    51 1
    56    21    52 1
    57    22    53 1
    58    23    54 1
    59    26    55 1
    60    26    56 1
    61    29    57 1
@<TRIPOS>SUBSTRUCTURE
     1 8TN         1 TEMP              0 ****  ****    0 ROOT
