@<TRIPOS>MOLECULE
molecule
   27    27     1     0     0
SMALL
bcc


@<TRIPOS>ATOM
      1 N1           0.0000     0.0000     0.0000 ns         1 8TP      -0.590900
      2 C4          -2.2370    -0.0010     0.9900 c3         1 8TP       0.220800
      3 C5          -4.3660    -0.0010     2.2590 ca         1 8TP       0.203600
      4 C6          -5.0620     0.0000     3.4610 ca         1 8TP      -0.206500
      5 C7          -6.4430    -0.0010     3.4580 ca         1 8TP      -0.082500
      6 C8          -7.1330    -0.0030     2.2590 ca         1 8TP      -0.184000
      7 C10         -5.0630     0.0040     1.0570 ca         1 8TP      -0.206500
      8 C1           2.1000     0.0060    -1.3060 c3         1 8TP      -0.171100
      9 C2           1.3470     0.0000     0.0000 c          1 8TP       0.658100
     10 C3          -0.7330     0.0000     1.2690 c3         1 8TP       0.096000
     11 N2          -2.9690     0.0000     2.2580 nu         1 8TP      -0.829600
     12 C9          -6.4440    -0.0040     1.0610 ca         1 8TP      -0.082500
     13 O1           1.9540    -0.0040     1.0500 o          1 8TP      -0.605100
     14 H1          -0.5000    -0.0020    -0.8670 hn         1 8TP       0.313500
     15 H2          -2.4990    -0.8860     0.4230 h1         1 8TP       0.041200
     16 H3          -2.5000     0.8830     0.4210 h1         1 8TP       0.041200
     17 H4          -4.5220    -0.0010     4.4000 ha         1 8TP       0.127500
     18 H5          -6.9860     0.0000     4.3960 ha         1 8TP       0.127500
     19 H6          -8.2160    -0.0060     2.2590 ha         1 8TP       0.127000
     20 H7          -4.5240     0.0030     0.1170 ha         1 8TP       0.127500
     21 H8           1.8400    -0.8770    -1.8770 hc         1 8TP       0.061700
     22 H9           3.1660     0.0070    -1.1090 hc         1 8TP       0.061700
     23 H10          1.8370     0.8920    -1.8710 hc         1 8TP       0.061700
     24 H11         -0.4700    -0.8840     1.8370 h1         1 8TP       0.059200
     25 H12         -0.4710     0.8850     1.8370 h1         1 8TP       0.059200
     26 H13         -2.4680    -0.0140     3.1250 hn         1 8TP       0.441800
     27 H14         -6.9880    -0.0030     0.1240 ha         1 8TP       0.127500
@<TRIPOS>BOND
     1    12     6 ar  
     2    12     7 ar  
     3     6     5 ar  
     4     7     3 ar  
     5     5     4 ar  
     6     3     4 ar  
     7     3    11 1   
     8     2    11 1   
     9     2    10 1   
    10    10     1 1   
    11     1     9 1   
    12    13     9 2   
    13     9     8 1   
    14     1    14 1   
    15     2    15 1   
    16     2    16 1   
    17     4    17 1   
    18     5    18 1   
    19     6    19 1   
    20     7    20 1   
    21     8    21 1   
    22     8    22 1   
    23     8    23 1   
    24    10    24 1   
    25    10    25 1   
    26    11    26 1   
    27    12    27 1   
@<TRIPOS>SUBSTRUCTURE
     1 8TP         1 TEMP              0 ****  ****    0 ROOT
