@<TRIPOS>MOLECULE
8TQ
   32    34     1     0     0
SMALL
bcc


@<TRIPOS>ATOM
      1 N2           0.0000     0.0000     0.0000 n7         1 8TQ      -0.533200
      2 C22          1.4880     0.0000     0.0000 c3         1 8TQ       0.138800
      3 C23          1.9400     0.0000     1.4790 c3         1 8TQ      -0.041400
      4 C8           0.6280     0.0060     2.2760 c3         1 8TQ      -0.037500
      5 C21         -0.3790    -0.5850     1.2960 c3         1 8TQ       0.058500
      6 C25         -1.7730    -0.4420     1.7030 c          1 8TQ       0.633500
      7 O7          -2.5650    -0.2140     0.8140 o          1 8TQ      -0.667500
      8 C7           0.6630    -0.6950     3.5630 c2         1 8TQ      -0.115200
      9 C6          -0.2760    -1.1640     4.2640 c2         1 8TQ      -0.166200
     10 C5          -1.7500    -1.1680     4.1150 c3         1 8TQ       0.081900
     11 C4          -2.3520    -0.3870     5.3120 c3         1 8TQ      -0.042400
     12 C3          -3.7340     0.0610     4.7980 c3         1 8TQ      -0.024400
     13 C2          -3.6320    -0.0050     3.2680 c3         1 8TQ      -0.104300
     14 N1          -2.2850    -0.5290     2.9320 n          1 8TQ      -0.133800
     15 C1          -3.8120     1.3750     2.6870 c          1 8TQ       0.648900
     16 O2          -4.7540     1.6100     1.9700 o          1 8TQ      -0.518100
     17 H1          -0.3340     0.9420    -0.0510 hn         1 8TQ       0.260800
     18 H27          1.8560    -0.8890    -0.4980 h1         1 8TQ       0.022200
     19 H26          1.8560     0.8890    -0.4980 h1         1 8TQ       0.022200
     20 H28          2.5190     0.8900     1.6960 hc         1 8TQ       0.023700
     21 H29          2.5110    -0.8940     1.6990 hc         1 8TQ       0.023700
     22 H30          0.3530     1.0370     2.4640 hc         1 8TQ       0.035700
     23 H31         -0.1780    -1.6470     1.2350 h1         1 8TQ       0.054700
     24 H32          1.6530    -0.8330     3.9790 ha         1 8TQ       0.096000
     25 H33          0.0660    -1.6670     5.1600 ha         1 8TQ       0.098000
     26 H34         -2.1020    -2.1920     4.1500 h1         1 8TQ       0.032700
     27 HZT         -1.7390     0.4750     5.5490 hc         1 8TQ       0.028200
     28 H35         -2.4590    -1.0350     6.1730 hc         1 8TQ       0.028200
     29 H36         -3.8410     1.1060     5.0600 hc         1 8TQ       0.037700
     30 HZU         -4.4410    -0.7040     5.0970 hc         1 8TQ       0.037700
     31 H37         -4.3910    -0.6730     2.8800 h1         1 8TQ       0.060700
     32 H3          -3.1130     2.1630     2.9380 h4         1 8TQ      -0.040800
@<TRIPOS>BOND
     1     1     2 1   
     2     1     5 1   
     3     1    17 1   
     4     2     3 1   
     5     2    18 1   
     6     2    19 1   
     7     3     4 1   
     8     3    20 1   
     9     3    21 1   
    10     4     5 1   
    11     4     8 1   
    12     4    22 1   
    13     5     6 1   
    14     5    23 1   
    15     6     7 2   
    16     6    14 1   
    17     8     9 2   
    18     8    24 1   
    19     9    10 1   
    20     9    25 1   
    21    10    11 1   
    22    10    14 1   
    23    10    26 1   
    24    11    12 1   
    25    11    27 1   
    26    11    28 1   
    27    12    13 1   
    28    12    29 1   
    29    12    30 1   
    30    13    14 1   
    31    13    15 1   
    32    13    31 1   
    33    15    16 2   
    34    15    32 1   
@<TRIPOS>SUBSTRUCTURE
     1 8TQ         1 TEMP              0 ****  ****    0 ROOT
