@<TRIPOS>MOLECULE
molecule
   32    34     1     0     0
SMALL
bcc


@<TRIPOS>ATOM
      1 N2           0.0000     0.0000     0.0000 n7         1 8TQ      -0.750200
      2 C22          1.4880     0.0000     0.0000 c3         1 8TQ       0.139800
      3 C23          1.9400     0.0000     1.4790 c3         1 8TQ      -0.106400
      4 C8           0.6280     0.0060     2.2760 c3         1 8TQ      -0.075500
      5 C21         -0.3790    -0.5850     1.2960 c3         1 8TQ       0.094500
      6 C25         -1.7730    -0.4420     1.7030 c          1 8TQ       0.714500
      7 O7          -2.5650    -0.2140     0.8140 o          1 8TQ      -0.622500
      8 C7           0.6630    -0.6950     3.5630 c2         1 8TQ      -0.135200
      9 C6          -0.2760    -1.1640     4.2640 c2         1 8TQ      -0.180200
     10 C5          -1.7500    -1.1680     4.1150 c3         1 8TQ       0.147900
     11 C4          -2.3520    -0.3870     5.3120 c3         1 8TQ      -0.096400
     12 C3          -3.7340     0.0610     4.7980 c3         1 8TQ      -0.088400
     13 C2          -3.6320    -0.0050     3.2680 c3         1 8TQ      -0.006300
     14 N1          -2.2850    -0.5290     2.9320 n          1 8TQ      -0.482800
     15 C1          -3.8120     1.3750     2.6870 c          1 8TQ       0.568900
     16 O2          -4.7540     1.6100     1.9700 o          1 8TQ      -0.491100
     17 H1          -0.3340     0.9420    -0.0510 hn         1 8TQ       0.357800
     18 H27          1.8560    -0.8890    -0.4980 h1         1 8TQ       0.057700
     19 H26          1.8560     0.8890    -0.4980 h1         1 8TQ       0.057700
     20 H28          2.5190     0.8900     1.6960 hc         1 8TQ       0.053200
     21 H29          2.5110    -0.8940     1.6990 hc         1 8TQ       0.053200
     22 H30          0.3530     1.0370     2.4640 hc         1 8TQ       0.061700
     23 H31         -0.1780    -1.6470     1.2350 h1         1 8TQ       0.088700
     24 H32          1.6530    -0.8330     3.9790 ha         1 8TQ       0.118000
     25 H33          0.0660    -1.6670     5.1600 ha         1 8TQ       0.121000
     26 H34         -2.1020    -2.1920     4.1500 h1         1 8TQ       0.060700
     27 HZT         -1.7390     0.4750     5.5490 hc         1 8TQ       0.058200
     28 H35         -2.4590    -1.0350     6.1730 hc         1 8TQ       0.058200
     29 H36         -3.8410     1.1060     5.0600 hc         1 8TQ       0.069200
     30 HZU         -4.4410    -0.7040     5.0970 hc         1 8TQ       0.069200
     31 H37         -4.3910    -0.6730     2.8800 h1         1 8TQ       0.087700
     32 H3          -3.1130     2.1630     2.9380 h4         1 8TQ      -0.003800
@<TRIPOS>BOND
     1    12    11 1
     2    12    13 1
     3    11    10 1
     4    15    13 1
     5    15    16 2
     6    13    14 1
     7    10    14 1
     8    10     9 1
     9    14     6 1
    10     9     8 2
    11     6     7 2
    12     6     5 1
    13     8     4 1
    14     5     4 1
    15     5     1 1
    16     4     3 1
    17     1     2 1
    18     3     2 1
    19     1    17 1
    20     2    18 1
    21     2    19 1
    22     3    20 1
    23     3    21 1
    24     4    22 1
    25     5    23 1
    26     8    24 1
    27     9    25 1
    28    10    26 1
    29    11    27 1
    30    11    28 1
    31    12    29 1
    32    12    30 1
    33    13    31 1
    34    15    32 1
@<TRIPOS>SUBSTRUCTURE
     1 8TQ         1 TEMP              0 ****  ****    0 ROOT
