@<TRIPOS>MOLECULE
molecule
    3     2     1     0     0
SMALL
bcc


@<TRIPOS>ATOM
      1 O1           0.0000     0.0000     0.0000 oh         1 8TR      -0.460600
      2 Cl1          1.6210     0.0000     0.0000 cl         1 8TR       0.046600
      3 H1          -0.3140     0.0000     0.8890 ho         1 8TR       0.413000
@<TRIPOS>BOND
     1     2     1 1   
     2     1     3 1   
@<TRIPOS>SUBSTRUCTURE
     1 8TR         1 TEMP              0 ****  ****    0 ROOT
