@<TRIPOS>MOLECULE
molecule
   31    32     1     0     0
SMALL
bcc


@<TRIPOS>ATOM
      1 N1           0.0000     0.0000     0.0000 n          1 8TS      -0.503800
      2 N3           4.0150     1.6850     8.2580 n1         1 8TS      -0.359800
      3 C4          -0.1180     0.9760     2.2310 c3         1 8TS       0.153300
      4 C5           1.9580     0.0000     1.4530 c3         1 8TS       0.153300
      5 C6           1.4710     0.0000     0.0000 c3         1 8TS       0.101000
      6 C7           1.8780     1.2640     3.4380 ca         1 8TS       0.635200
      7 C8           1.4180     2.2810     4.2710 ca         1 8TS      -0.273300
      8 C10          2.9470     1.5100     5.9290 ca         1 8TS      -0.177300
      9 C1           0.0340    -1.8440    -1.6480 c3         1 8TS      -0.170100
     10 C2          -0.6920    -0.9050    -0.7200 c          1 8TS       0.663100
     11 C3          -0.6960     1.0100     0.8130 c3         1 8TS       0.101000
     12 N2           1.3420     1.1280     2.1660 nh         1 8TS      -0.690300
     13 C9           1.9510     2.4130     5.5260 ca         1 8TS      -0.035000
     14 C11          3.5320     1.6080     7.2310 cg         1 8TS       0.241800
     15 C12          3.3660     0.5200     5.0370 ca         1 8TS       0.489200
     16 N4           2.8240     0.4270     3.8410 nb         1 8TS      -0.743000
     17 O1          -1.9000    -0.9630    -0.6210 o          1 8TS      -0.610100
     18 H1          -0.3760     0.0290     2.6910 h1         1 8TS       0.059950
     19 H2          -0.5550     1.7830     2.8070 h1         1 8TS       0.059950
     20 H3           3.0370     0.1000     1.4590 h1         1 8TS       0.059950
     21 H4           1.6850    -0.9420     1.9130 h1         1 8TS       0.059950
     22 H5           1.8200    -0.8670    -0.5480 h1         1 8TS       0.065200
     23 H6           1.8200     0.8990    -0.4940 h1         1 8TS       0.065200
     24 H7           0.6470     2.9590     3.9250 ha         1 8TS       0.152000
     25 H8          -0.6700    -2.5500    -2.0710 hc         1 8TS       0.062033
     26 H9           0.4990    -1.2760    -2.4450 hc         1 8TS       0.062033
     27 H10          0.7960    -2.3810    -1.0950 hc         1 8TS       0.062033
     28 H11         -1.7590     0.8050     0.7900 h1         1 8TS       0.065200
     29 H12         -0.5130     1.9890     0.3860 h1         1 8TS       0.065200
     30 H13          1.6020     3.2000     6.1830 ha         1 8TS       0.151000
     31 H14          4.1340    -0.1840     5.3320 h4         1 8TS       0.036100
@<TRIPOS>BOND
     1     2    14 3   
     2    14     8 1   
     3    15     8 ar  
     4    15    16 ar  
     5     8    13 ar  
     6    16     6 ar  
     7    13     7 ar  
     8     6     7 ar  
     9     6    12 1   
    10     4    12 1   
    11     4     5 1   
    12    12     3 1   
    13     3    11 1   
    14     5     1 1   
    15     1    11 1   
    16     1    10 1   
    17     9    10 1   
    18    10    17 2   
    19     3    18 1   
    20     3    19 1   
    21     4    20 1   
    22     4    21 1   
    23     5    22 1   
    24     5    23 1   
    25     7    24 1   
    26     9    25 1   
    27     9    26 1   
    28     9    27 1   
    29    11    28 1   
    30    11    29 1   
    31    13    30 1   
    32    15    31 1   
@<TRIPOS>SUBSTRUCTURE
     1 8TS         1 TEMP              0 ****  ****    0 ROOT
