@<TRIPOS>MOLECULE
8TS
   31    32     1     0     0
SMALL
bcc


@<TRIPOS>ATOM
      1 N1           0.0000     0.0000     0.0000 n          1 8TS      -0.173800
      2 N3           4.0150     1.6850     8.2580 n1         1 8TS      -0.374800
      3 C4          -0.1180     0.9760     2.2310 c3         1 8TS       0.126300
      4 C5           1.9580     0.0000     1.4530 c3         1 8TS       0.126300
      5 C6           1.4710     0.0000     0.0000 c3         1 8TS       0.045500
      6 C7           1.8780     1.2640     3.4380 ca         1 8TS       0.507200
      7 C8           1.4180     2.2810     4.2710 ca         1 8TS      -0.247300
      8 C10          2.9470     1.5100     5.9290 ca         1 8TS      -0.126300
      9 C1           0.0340    -1.8440    -1.6480 c3         1 8TS      -0.073100
     10 C2          -0.6920    -0.9050    -0.7200 c          1 8TS       0.592100
     11 C3          -0.6960     1.0100     0.8130 c3         1 8TS       0.045500
     12 N2           1.3420     1.1280     2.1660 nh         1 8TS      -0.456300
     13 C9           1.9510     2.4130     5.5260 ca         1 8TS      -0.011000
     14 C11          3.5320     1.6080     7.2310 cg         1 8TS       0.234800
     15 C12          3.3660     0.5200     5.0370 ca         1 8TS       0.468200
     16 N4           2.8240     0.4270     3.8410 nb         1 8TS      -0.629000
     17 O1          -1.9000    -0.9630    -0.6210 o          1 8TS      -0.646100
     18 H1          -0.3760     0.0290     2.6910 h1         1 8TS       0.032200
     19 H2          -0.5550     1.7830     2.8070 h1         1 8TS       0.032200
     20 H3           3.0370     0.1000     1.4590 h1         1 8TS       0.032200
     21 H4           1.6850    -0.9420     1.9130 h1         1 8TS       0.032200
     22 H5           1.8200    -0.8670    -0.5480 h1         1 8TS       0.036950
     23 H6           1.8200     0.8990    -0.4940 h1         1 8TS       0.036950
     24 H7           0.6470     2.9590     3.9250 ha         1 8TS       0.131000
     25 H8          -0.6700    -2.5500    -2.0710 hc         1 8TS       0.025700
     26 H9           0.4990    -1.2760    -2.4450 hc         1 8TS       0.025700
     27 H10          0.7960    -2.3810    -1.0950 hc         1 8TS       0.025700
     28 H11         -1.7590     0.8050     0.7900 h1         1 8TS       0.036950
     29 H12         -0.5130     1.9890     0.3860 h1         1 8TS       0.036950
     30 H13          1.6020     3.2000     6.1830 ha         1 8TS       0.118000
     31 H14          4.1340    -0.1840     5.3320 h4         1 8TS      -0.010900
@<TRIPOS>BOND
     1     1     5 1   
     2     1    10 1   
     3     1    11 1   
     4     2    14 3   
     5     3    11 1   
     6     3    12 1   
     7     3    18 1   
     8     3    19 1   
     9     4     5 1   
    10     4    12 1   
    11     4    20 1   
    12     4    21 1   
    13     5    22 1   
    14     5    23 1   
    15     6     7 ar  
    16     6    12 1   
    17     6    16 ar  
    18     7    13 ar  
    19     7    24 1   
    20     8    13 ar  
    21     8    14 1   
    22     8    15 ar  
    23     9    10 1   
    24     9    25 1   
    25     9    26 1   
    26     9    27 1   
    27    10    17 2   
    28    11    28 1   
    29    11    29 1   
    30    13    30 1   
    31    15    16 ar  
    32    15    31 1   
@<TRIPOS>SUBSTRUCTURE
     1 8TS         1 TEMP              0 ****  ****    0 ROOT
