@<TRIPOS>MOLECULE
molecule
   53    52     1     0     0
SMALL
bcc


@<TRIPOS>ATOM
      1 C2           0.0000     0.0000     0.0000 c          1 8TU       0.890600
      2 C12         -7.1810     1.4180    -5.2340 c3         1 8TU       0.135400
      3 C22        -12.0820     0.6580    -6.5010 c3         1 8TU      -0.092100
      4 O1           1.3430     0.0000     0.0000 o          1 8TU      -0.859300
      5 O3          -0.6040     0.0000     1.0470 o          1 8TU      -0.859300
      6 C4          -0.7540     0.0080    -1.3050 c3         1 8TU      -0.182400
      7 C5          -2.2570     0.0070    -1.0250 c3         1 8TU      -0.062400
      8 C6          -3.0230     0.0150    -2.3500 c3         1 8TU      -0.089400
      9 C7          -4.5270     0.0140    -2.0710 c3         1 8TU      -0.104400
     10 C8          -5.2920     0.0220    -3.3960 c3         1 8TU       0.145100
     11 O9          -5.0370    -1.1950    -4.1000 oh         1 8TU      -0.607800
     12 C10         -6.7920     0.1460    -3.1180 c3         1 8TU      -0.060400
     13 C11         -7.5560     0.1630    -4.4430 c3         1 8TU      -0.081700
     14 C14         -9.0600     0.1670    -4.1650 c3         1 8TU      -0.062700
     15 C15         -9.4630    -1.1640    -3.5250 c3         1 8TU      -0.061400
     16 C16         -8.7200    -2.3080    -4.2170 c3         1 8TU       0.340600
     17 C17         -8.9570    -2.2330    -5.7260 c3         1 8TU      -0.146100
     18 O19         -7.3210    -2.1980    -3.9470 oh         1 8TU      -0.605300
     19 O18         -9.2030    -3.5590    -3.7200 oh         1 8TU      -0.605300
     20 C20         -9.8230     0.3520    -5.4780 c3         1 8TU      -0.118400
     21 C21        -11.3200     0.4710    -5.1880 c3         1 8TU      -0.087400
     22 H2          -7.3180     2.2930    -4.6100 h1         1 8TU       0.018700
     23 H3         -12.0230    -0.2530    -7.0850 hc         1 8TU       0.029700
     24 H4         -13.1190     0.8830    -6.2880 hc         1 8TU       0.029700
     25 H5         -11.6420     1.4750    -7.0610 hc         1 8TU       0.029700
     26 H7          -0.4920     0.8960    -1.8680 hc         1 8TU       0.026200
     27 H8          -0.4930    -0.8730    -1.8790 hc         1 8TU       0.026200
     28 H9          -2.5190     0.8880    -0.4520 hc         1 8TU       0.044700
     29 H10         -2.5190    -0.8810    -0.4620 hc         1 8TU       0.044700
     30 H11         -2.7610    -0.8660    -2.9240 hc         1 8TU       0.028200
     31 H12         -2.7610     0.9030    -2.9130 hc         1 8TU       0.028200
     32 H13         -4.7880     0.8950    -1.4970 hc         1 8TU       0.043700
     33 H14         -4.7890    -0.8740    -1.5080 hc         1 8TU       0.043700
     34 H15         -4.9650     0.8620    -3.9970 h1         1 8TU       0.058700
     35 H16         -4.3540    -1.0540    -4.7340 ho         1 8TU       0.394000
     36 H17         -7.1200    -0.6970    -2.5230 hc         1 8TU       0.047700
     37 H18         -6.9840     1.0660    -2.5790 hc         1 8TU       0.047700
     38 H19         -7.2980    -0.7170    -5.0200 hc         1 8TU       0.107700
     39 H20         -5.6930     1.8150    -6.4420 ho         1 8TU       0.388000
     40 H21         -9.3000     0.9790    -3.4900 hc         1 8TU       0.052700
     41 H22         -9.2080    -1.1510    -2.4730 hc         1 8TU       0.059700
     42 H23        -10.5310    -1.3080    -3.6360 hc         1 8TU       0.059700
     43 H24         -8.2940    -1.4940    -6.1600 hc         1 8TU       0.050367
     44 H25         -9.9860    -1.9520    -5.9160 hc         1 8TU       0.050367
     45 H26         -8.7600    -3.2010    -6.1710 hc         1 8TU       0.050367
     46 H27         -6.9590    -3.0570    -3.8070 ho         1 8TU       0.403000
     47 H28         -8.6090    -4.2470    -3.9690 ho         1 8TU       0.403000
     48 H29         -9.6470    -0.5020    -6.1220 hc         1 8TU       0.055200
     49 H30         -9.4780     1.2520    -5.9720 hc         1 8TU       0.055200
     50 H31        -11.6650    -0.4290    -4.6950 hc         1 8TU       0.042200
     51 H32        -11.4960     1.3250    -4.5440 hc         1 8TU       0.042200
     52 O13         -5.8130     1.3330    -5.6410 oh         1 8TU      -0.603800
     53 H1          -7.8140     1.4960    -6.1100 h1         1 8TU       0.018700
@<TRIPOS>BOND
     1    21    20 1   
     2    21     3 1   
     3    20    14 1   
     4    52     2 1   
     5     2    13 1   
     6    15    14 1   
     7    15    16 1   
     8    14    13 1   
     9    13    12 1   
    10    19    16 1   
    11    11    10 1   
    12    16    17 1   
    13    16    18 1   
    14    12    10 1   
    15    10     9 1   
    16     9     8 1   
    17     8     7 1   
    18     7     6 1   
    19     5     1 1   
    20     1     4 1   
    21     1     6 1   
    22     2    53 1   
    23     2    22 1   
    24     3    23 1   
    25     3    24 1   
    26     3    25 1   
    27     6    26 1   
    28     6    27 1   
    29     7    28 1   
    30     7    29 1   
    31     8    30 1   
    32     8    31 1   
    33     9    32 1   
    34     9    33 1   
    35    10    34 1   
    36    11    35 1   
    37    12    36 1   
    38    12    37 1   
    39    13    38 1   
    40    52    39 1   
    41    14    40 1   
    42    15    41 1   
    43    15    42 1   
    44    17    43 1   
    45    17    44 1   
    46    17    45 1   
    47    18    46 1   
    48    19    47 1   
    49    20    48 1   
    50    20    49 1   
    51    21    50 1   
    52    21    51 1   
@<TRIPOS>SUBSTRUCTURE
     1 8TU         1 TEMP              0 ****  ****    0 ROOT
