@<TRIPOS>MOLECULE
8TV
   30    31     1     0     0
SMALL
bcc


@<TRIPOS>ATOM
      1 N1           0.0000     0.0000     0.0000 n          1 8TV      -0.167800
      2 N3           2.9220    -1.5140     5.9640 nb         1 8TV      -0.606000
      3 C4          -0.1290    -0.9740     2.2320 c3         1 8TV       0.119300
      4 C5           1.9580     0.0000     1.4530 c3         1 8TV       0.119300
      5 C6           1.4700     0.0000     0.0000 c3         1 8TV       0.049500
      6 C7           1.8690    -1.2530     3.4540 ca         1 8TV       0.051600
      7 C8           3.2420    -1.4040     3.6410 ca         1 8TV      -0.273300
      8 C10          1.6170    -1.3730     5.8280 ca         1 8TV       0.433200
      9 C1          -2.1990     0.8830    -0.7100 c3         1 8TV      -0.072100
     10 C2          -0.6920     0.9010    -0.7250 c          1 8TV       0.590100
     11 C3          -0.6960    -1.0130     0.8090 c3         1 8TV       0.049500
     12 N2           1.3320    -1.1200     2.1760 nh         1 8TV      -0.354000
     13 C9           3.7340    -1.5330     4.9230 ca         1 8TV       0.433200
     14 C11          1.0460    -1.2380     4.5800 ca         1 8TV      -0.273300
     15 O1          -0.1010     1.7260    -1.3900 o          1 8TV      -0.645100
     16 H1          -0.3790    -0.0270     2.6940 h1         1 8TV       0.028200
     17 H2          -0.5500    -1.7870     2.8100 h1         1 8TV       0.028200
     18 H3           3.0350    -0.1150     1.4720 h1         1 8TV       0.028200
     19 H4           1.6810     0.9340     1.9260 h1         1 8TV       0.028200
     20 H5           1.8330    -0.8870    -0.5050 h1         1 8TV       0.036950
     21 H6           1.8330     0.8870    -0.5050 h1         1 8TV       0.036950
     22 H7           3.9140    -1.4210     2.7910 ha         1 8TV       0.126500
     23 H8           0.9860    -1.3630     6.7090 h4         1 8TV      -0.021400
     24 H9          -2.5530     1.1400     0.2810 hc         1 8TV       0.025033
     25 H10         -2.5510    -0.1070    -0.9740 hc         1 8TV       0.025033
     26 H11         -2.5760     1.6030    -1.4260 hc         1 8TV       0.025033
     27 H12         -1.7560    -0.7910     0.8350 h1         1 8TV       0.036950
     28 H13         -0.5340    -1.9940     0.3800 h1         1 8TV       0.036950
     29 H14          4.7990    -1.6510     5.0770 h4         1 8TV      -0.021400
     30 H15         -0.0260    -1.1230     4.4760 ha         1 8TV       0.126500
@<TRIPOS>BOND
     1     1     5 1   
     2     1    10 1   
     3     1    11 1   
     4     2     8 ar  
     5     2    13 ar  
     6     3    11 1   
     7     3    12 1   
     8     3    16 1   
     9     3    17 1   
    10     4     5 1   
    11     4    12 1   
    12     4    18 1   
    13     4    19 1   
    14     5    20 1   
    15     5    21 1   
    16     6     7 ar  
    17     6    12 1   
    18     6    14 ar  
    19     7    13 ar  
    20     7    22 1   
    21     8    14 ar  
    22     8    23 1   
    23     9    10 1   
    24     9    24 1   
    25     9    25 1   
    26     9    26 1   
    27    10    15 2   
    28    11    27 1   
    29    11    28 1   
    30    13    29 1   
    31    14    30 1   
@<TRIPOS>SUBSTRUCTURE
     1 8TV         1 TEMP              0 ****  ****    0 ROOT
