@<TRIPOS>MOLECULE
molecule
   30    31     1     0     0
SMALL
bcc


@<TRIPOS>ATOM
      1 N1           0.0000     0.0000     0.0000 n          1 8TV      -0.499800
      2 N3           2.9220    -1.5140     5.9640 nb         1 8TV      -0.711000
      3 C4          -0.1290    -0.9740     2.2320 c3         1 8TV       0.146800
      4 C5           1.9580     0.0000     1.4530 c3         1 8TV       0.146800
      5 C6           1.4700     0.0000     0.0000 c3         1 8TV       0.105500
      6 C7           1.8690    -1.2530     3.4540 ca         1 8TV       0.137600
      7 C8           3.2420    -1.4040     3.6410 ca         1 8TV      -0.296800
      8 C10          1.6170    -1.3730     5.8280 ca         1 8TV       0.442200
      9 C1          -2.1990     0.8830    -0.7100 c3         1 8TV      -0.170100
     10 C2          -0.6920     0.9010    -0.7250 c          1 8TV       0.662100
     11 C3          -0.6960    -1.0130     0.8090 c3         1 8TV       0.105500
     12 N2           1.3320    -1.1200     2.1760 nh         1 8TV      -0.596000
     13 C9           3.7340    -1.5330     4.9230 ca         1 8TV       0.442200
     14 C11          1.0460    -1.2380     4.5800 ca         1 8TV      -0.296800
     15 O1          -0.1010     1.7260    -1.3900 o          1 8TV      -0.608100
     16 H1          -0.3790    -0.0270     2.6940 h1         1 8TV       0.053450
     17 H2          -0.5500    -1.7870     2.8100 h1         1 8TV       0.053450
     18 H3           3.0350    -0.1150     1.4720 h1         1 8TV       0.053450
     19 H4           1.6810     0.9340     1.9260 h1         1 8TV       0.053450
     20 H5           1.8330    -0.8870    -0.5050 h1         1 8TV       0.065200
     21 H6           1.8330     0.8870    -0.5050 h1         1 8TV       0.065200
     22 H7           3.9140    -1.4210     2.7910 ha         1 8TV       0.142000
     23 H8           0.9860    -1.3630     6.7090 h4         1 8TV       0.023100
     24 H9          -2.5530     1.1400     0.2810 hc         1 8TV       0.061367
     25 H10         -2.5510    -0.1070    -0.9740 hc         1 8TV       0.061367
     26 H11         -2.5760     1.6030    -1.4260 hc         1 8TV       0.061367
     27 H12         -1.7560    -0.7910     0.8350 h1         1 8TV       0.065200
     28 H13         -0.5340    -1.9940     0.3800 h1         1 8TV       0.065200
     29 H14          4.7990    -1.6510     5.0770 h4         1 8TV       0.023100
     30 H15         -0.0260    -1.1230     4.4760 ha         1 8TV       0.142000
@<TRIPOS>BOND
     1     8     2 ar
     2     8    14 ar
     3     2    13 ar
     4    14     6 ar
     5    13     7 ar
     6     3    12 1
     7     3    11 1
     8     6     7 ar
     9     6    12 1
    10    12     4 1
    11    11     1 1
    12     5     4 1
    13     5     1 1
    14     1    10 1
    15    10     9 1
    16    10    15 2
    17     3    16 1
    18     3    17 1
    19     4    18 1
    20     4    19 1
    21     5    20 1
    22     5    21 1
    23     7    22 1
    24     8    23 1
    25     9    24 1
    26     9    25 1
    27     9    26 1
    28    11    27 1
    29    11    28 1
    30    13    29 1
    31    14    30 1
@<TRIPOS>SUBSTRUCTURE
     1 8TV         1 TEMP              0 ****  ****    0 ROOT
