@<TRIPOS>MOLECULE
molecule
   21    22     1     0     0
SMALL
bcc


@<TRIPOS>ATOM
      1 O01          0.0000     0.0000     0.0000 o          1 8TW      -0.817300
      2 C02          1.2090     0.0000     0.0000 c          1 8TW       0.907600
      3 C03          1.9620     0.0000     1.3060 c3         1 8TW      -0.146500
      4 C04          2.8740    -1.1870     1.3360 c2         1 8TW      -0.363200
      5 S05          2.6540    -2.0210     2.6310 s4         1 8TW       0.069700
      6 C06          1.5640    -0.8950     3.5650 cy         1 8TW      -0.026400
      7 C07          0.9570    -0.0010     2.4550 cy         1 8TW       0.004300
      8 C08         -0.1500    -1.0580     2.3220 cy         1 8TW       0.385600
      9 O09          0.1510    -2.0850     1.3760 oh         1 8TW      -0.552300
     10 O10         -1.4530    -0.5000     2.1380 oh         1 8TW      -0.552300
     11 C11          0.1480    -1.4540     3.7770 cy         1 8TW       0.142800
     12 Cl2          0.1110    -3.2330     4.0630 cl         1 8TW      -0.202400
     13 Cl3         -0.8180    -0.5310     4.9880 cl         1 8TW      -0.202400
     14 O14          1.8790    -0.0050    -1.1620 o          1 8TW      -0.817300
     15 H1           2.5620     0.9000     1.3690 hc         1 8TW       0.058700
     16 H2           3.8610    -1.1240     0.8940 h4         1 8TW       0.135000
     17 H3           1.9990    -0.3540     4.3970 h1         1 8TW       0.071700
     18 H4           0.6260     0.9700     2.8020 hc         1 8TW       0.089700
     19 H5          -0.5900    -2.6610     1.2900 ho         1 8TW       0.389000
     20 H6          -2.1050    -1.1580     2.3150 ho         1 8TW       0.389000
     21 H8           3.2640    -3.1300     3.0320 hs         1 8TW       0.034000
@<TRIPOS>BOND
     1    12    11 1
     2     5     4 2
     3     5     6 1
     4     4     3 1
     5     1     2 1
     6    11     6 1
     7    11    13 1
     8    11     8 1
     9     6     7 1
    10     9     8 1
    11     3     2 1
    12     3     7 1
    13     2    14 1
    14     8     7 1
    15     8    10 1
    16     3    15 1
    17     4    16 1
    18     6    17 1
    19     7    18 1
    20     9    19 1
    21    10    20 1
    22     5    21 1
@<TRIPOS>SUBSTRUCTURE
     1 8TW         1 TEMP              0 ****  ****    0 ROOT
