@<TRIPOS>MOLECULE
molecule
   16    17     1     0     0
SMALL
bcc


@<TRIPOS>ATOM
      1 N1           0.0000     0.0000     0.0000 ns         1 8TX      -0.554500
      2 C2           1.3450     0.0000     0.0000 c          1 8TX       0.822500
      3 O2           1.9420    -0.0000    -1.0610 o          1 8TX      -0.629500
      4 N3           2.0440     0.0000     1.1510 ns         1 8TX      -0.444100
      5 C4           1.3890    -0.0020     2.3600 cc         1 8TX       0.114200
      6 C5           0.0210    -0.0020     2.3810 cd         1 8TX      -0.219600
      7 C6          -0.6870    -0.0010     1.1610 c          1 8TX       0.737700
      8 O6          -1.9050    -0.0010     1.1570 o          1 8TX      -0.603500
      9 N7          -0.3720    -0.0030     3.7230 ns         1 8TX      -0.312100
     10 C8           0.7480    -0.0040     4.4750 cs         1 8TX       0.541400
     11 S8           0.7960    -0.0050     6.1870 s          1 8TX      -0.618400
     12 N9           1.8210    -0.0020     3.6610 ns         1 8TX      -0.357100
     13 HN1         -0.4960     0.0010    -0.8690 hn         1 8TX       0.380500
     14 HN3          3.0450     0.0000     1.1260 hn         1 8TX       0.364500
     15 HN7         -1.3130    -0.0040     4.0630 hn         1 8TX       0.398500
     16 HN9          2.7770    -0.0020     3.9580 hn         1 8TX       0.380500
@<TRIPOS>BOND
     1     1     2 1   
     2     1     7 1   
     3     2     3 2   
     4     2     4 1   
     5     4     5 1   
     6     5     6 2   
     7     5    12 1   
     8     6     7 1   
     9     6     9 1   
    10     7     8 2   
    11     9    10 1   
    12    10    11 2   
    13    10    12 1   
    14     1    13 1   
    15     4    14 1   
    16     9    15 1   
    17    12    16 1   
@<TRIPOS>SUBSTRUCTURE
     1 8TX         1 TEMP              0 ****  ****    0 ROOT
