@<TRIPOS>MOLECULE
molecule
   27    27     1     0     0
SMALL
bcc


@<TRIPOS>ATOM
      1 N1           0.0000     0.0000     0.0000 n          1 8TY      -0.495800
      2 C4          -0.2230    -1.0630     2.1850 c3         1 8TY       0.215800
      3 C5           1.9590     0.0000     1.4540 c3         1 8TY       0.215800
      4 C6           1.4690     0.0000     0.0000 c3         1 8TY       0.095000
      5 C7           2.3170    -1.5490     4.6690 c3         1 8TY      -0.247300
      6 C1          -2.1880     0.8700    -0.7580 c3         1 8TY      -0.170100
      7 C2          -0.6870     0.9530    -0.6610 c          1 8TY       0.662100
      8 C3          -0.7090    -1.0600     0.7310 c3         1 8TY       0.095000
      9 N2           1.2470    -1.0590     2.1900 n3         1 8TY      -0.821500
     10 S1           2.0870    -2.2310     3.0040 s6         1 8TY       1.325900
     11 O1           3.3310    -2.3090     2.3210 o          1 8TY      -0.627800
     12 O2           1.1990    -3.3400     3.0380 o          1 8TY      -0.627800
     13 O3          -0.0950     1.8760    -1.1800 o          1 8TY      -0.609100
     14 H1          -0.5850    -1.9520     2.6870 h1         1 8TY       0.062700
     15 H2          -0.5890    -0.1780     2.6910 h1         1 8TY       0.062700
     16 H3           1.7500     0.9610     1.9080 h1         1 8TY       0.062700
     17 H4           3.0250    -0.1950     1.4780 h1         1 8TY       0.062700
     18 H5           1.8320     0.8870    -0.5050 h1         1 8TY       0.066200
     19 H6           1.8320    -0.8870    -0.5050 h1         1 8TY       0.066200
     20 H7           1.3500    -1.3600     5.1190 h1         1 8TY       0.097033
     21 H8           2.8740    -0.6220     4.6060 h1         1 8TY       0.097033
     22 H9           2.8650    -2.2590     5.2770 h1         1 8TY       0.097033
     23 H10         -2.6230     1.0360     0.2200 hc         1 8TY       0.061367
     24 H11         -2.4730    -0.1110    -1.1190 hc         1 8TY       0.061367
     25 H12         -2.5480     1.6260    -1.4460 hc         1 8TY       0.061367
     26 H13         -1.7750    -0.8690     0.7050 h1         1 8TY       0.066200
     27 H14         -0.4950    -2.0200     0.2760 h1         1 8TY       0.066200
@<TRIPOS>BOND
     1    11    10 2   
     2    12    10 2   
     3    10     9 1   
     4    10     5 1   
     5     9     3 1   
     6     9     2 1   
     7     3     4 1   
     8     4     1 1   
     9     8     2 1   
    10     8     1 1   
    11     1     7 1   
    12     7    13 2   
    13     7     6 1   
    14     2    14 1   
    15     2    15 1   
    16     3    16 1   
    17     3    17 1   
    18     4    18 1   
    19     4    19 1   
    20     5    20 1   
    21     5    21 1   
    22     5    22 1   
    23     6    23 1   
    24     6    24 1   
    25     6    25 1   
    26     8    26 1   
    27     8    27 1   
@<TRIPOS>SUBSTRUCTURE
     1 8TY         1 TEMP              0 ****  ****    0 ROOT
