@<TRIPOS>MOLECULE
molecule
   32    33     1     0     0
SMALL
bcc


@<TRIPOS>ATOM
      1 C1           0.0000     0.0000     0.0000 ca         1 8TZ      -0.171000
      2 C2           1.3840     0.0000     0.0000 ca         1 8TZ       0.141900
      3 C3           2.0760     0.0000     1.2000 ca         1 8TZ      -0.181000
      4 C4           1.3830     0.0010     2.3960 ca         1 8TZ      -0.070000
      5 C5           0.0000     0.0000     2.3950 ca         1 8TZ      -0.117300
      6 C6          -0.6900     0.0000     1.1980 ca         1 8TZ      -0.019300
      7 C7          -2.1980     0.0070     1.1980 c3         1 8TZ      -0.053100
      8 C8          -2.7000     1.4460     1.3280 c3         1 8TZ      -0.081400
      9 C9          -0.7540    -0.0010     3.6990 c3         1 8TZ       0.185100
     10 C10         -1.1110    -1.4160     4.0720 cc         1 8TZ       0.384800
     11 O1           0.0650     0.5690     4.7230 oh         1 8TZ      -0.612800
     12 N1          -0.8100    -2.0230     5.2400 na         1 8TZ      -0.275900
     13 C11         -1.3110    -3.2940     5.1780 cc         1 8TZ      -0.277600
     14 C12         -1.9020    -3.4220     3.9740 cd         1 8TZ       0.314200
     15 N2          -1.7700    -2.2570     3.3220 nd         1 8TZ      -0.696000
     16 F1           2.0610    -0.0000    -1.1700 f          1 8TZ      -0.142900
     17 C13         -4.2310     1.4530     1.3270 c3         1 8TZ      -0.092100
     18 H1          -0.5420    -0.0000    -0.9380 ha         1 8TZ       0.147000
     19 H2           3.1590     0.0000     1.2020 ha         1 8TZ       0.144000
     20 H3           1.9240     0.0010     3.3350 ha         1 8TZ       0.149000
     21 H4          -2.5610    -0.4200     0.2710 hc         1 8TZ       0.070700
     22 H5          -2.5620    -0.5800     2.0320 hc         1 8TZ       0.070700
     23 H6          -2.3360     2.0330     0.4930 hc         1 8TZ       0.038200
     24 H7          -2.3370     1.8730     2.2550 hc         1 8TZ       0.038200
     25 H8          -1.6590     0.5840     3.5930 h1         1 8TZ       0.067700
     26 H9          -0.3650     1.3260     5.0850 ho         1 8TZ       0.412000
     27 H10         -0.3120    -1.6180     6.0080 hn         1 8TZ       0.307700
     28 H11         -1.2430    -4.0540     5.9470 h4         1 8TZ       0.174000
     29 H12         -2.4020    -4.3070     3.6010 h4         1 8TZ       0.042100
     30 H14         -4.5940     1.0130     2.2480 hc         1 8TZ       0.034700
     31 H15         -4.5950     0.8790     0.4840 hc         1 8TZ       0.034700
     32 H16         -4.5870     2.4730     1.2500 hc         1 8TZ       0.034700
@<TRIPOS>BOND
     1     3     4 ar
     2     3     2 ar
     3    16     2 1
     4     4     5 ar
     5     2     1 ar
     6    12    13 1
     7    12    10 1
     8    13    14 2
     9    11     9 1
    10     5     9 1
    11     5     6 ar
    12     1     6 ar
    13    10     9 1
    14    10    15 2
    15     6     7 1
    16    14    15 1
    17     8     7 1
    18     8    17 1
    19     1    18 1
    20     3    19 1
    21     4    20 1
    22     7    21 1
    23     7    22 1
    24     8    23 1
    25     8    24 1
    26     9    25 1
    27    11    26 1
    28    12    27 1
    29    13    28 1
    30    14    29 1
    31    17    30 1
    32    17    31 1
    33    17    32 1
@<TRIPOS>SUBSTRUCTURE
     1 8TZ         1 TEMP              0 ****  ****    0 ROOT
