@<TRIPOS>MOLECULE
molecule
   51    54     1     0     0
SMALL
bcc


@<TRIPOS>ATOM
      1 C1           0.0000     0.0000     0.0000 c3         1 8U0      -0.171100
      2 C2           1.5070     0.0000     0.0000 c          1 8U0       0.659100
      3 C5           3.5760    -0.1010     1.1700 ca         1 8U0       0.110600
      4 C6           4.3190     0.4990     0.1610 ca         1 8U0      -0.170500
      5 C7           5.6960     0.3960     0.1660 ca         1 8U0      -0.008500
      6 C8           6.3360    -0.3020     1.1740 ca         1 8U0      -0.335500
      7 C13          8.4250     2.1170     1.8270 ca         1 8U0       0.102600
      8 C14          8.6100     2.5600     0.5240 ca         1 8U0      -0.121500
      9 C15          8.3660     3.8820     0.2050 ca         1 8U0      -0.164000
     10 C16          7.9370     4.7650     1.1840 ca         1 8U0       0.126100
     11 C18          7.7820     6.4320    -0.4360 ca         1 8U0       0.100100
     12 C19          6.7500     6.0890    -1.3160 ca         1 8U0      -0.147000
     13 C20          6.8060     6.4420    -2.6290 ca         1 8U0      -0.103000
     14 C21          7.9130     7.1600    -3.1120 ca         1 8U0      -0.040000
     15 C22          8.0020     7.5400    -4.4620 ca         1 8U0      -0.114000
     16 C23          9.0880     8.2360    -4.8960 ca         1 8U0      -0.123000
     17 C24         10.1180     8.5780    -4.0210 ca         1 8U0      -0.121000
     18 C25         10.0670     8.2260    -2.7070 ca         1 8U0      -0.114000
     19 C26          8.9600     7.5090    -2.2210 ca         1 8U0      -0.029000
     20 C27          8.8700     7.1350    -0.8710 ca         1 8U0      -0.120000
     21 C28          7.7530     4.3210     2.4860 ca         1 8U0      -0.164000
     22 C29          7.9900     2.9990     2.8050 ca         1 8U0      -0.121500
     23 C30          5.5980    -0.9000     2.1800 ca         1 8U0      -0.008500
     24 C31          4.2210    -0.7960     2.1840 ca         1 8U0      -0.170500
     25 N4           2.1800     0.0000     1.1670 ns         1 8U0      -0.485100
     26 N12          8.6720     0.7770     2.1510 nu         1 8U0      -0.762500
     27 O3           2.1130    -0.0010    -1.0500 o          1 8U0      -0.586100
     28 O10          8.4050    -1.6550     1.8280 o          1 8U0      -0.634800
     29 O11          8.5200    -0.1210    -0.1420 o          1 8U0      -0.634800
     30 O17          7.6980     6.0660     0.8690 os         1 8U0      -0.251200
     31 S9           8.0930    -0.4310     1.1770 sy         1 8U0       1.424200
     32 H1          -0.3610     0.2130    -0.9990 hc         1 8U0       0.065033
     33 H2          -0.3610    -0.9710     0.3150 hc         1 8U0       0.065033
     34 H3          -0.3610     0.7590     0.6840 hc         1 8U0       0.065033
     35 H4           3.8180     1.0440    -0.6300 ha         1 8U0       0.153500
     36 H5           6.2770     0.8640    -0.6200 ha         1 8U0       0.152000
     37 H6           8.9480     1.8710    -0.2410 ha         1 8U0       0.160000
     38 H7           8.5100     4.2280    -0.8110 ha         1 8U0       0.149500
     39 H8           5.8970     5.5320    -0.9490 ha         1 8U0       0.143000
     40 H9           6.0000     6.1700    -3.3000 ha         1 8U0       0.139000
     41 H10          7.2090     7.2810    -5.1540 ha         1 8U0       0.135000
     42 H11          9.1540     8.5280    -5.9370 ha         1 8U0       0.131000
     43 H12         10.9720     9.1320    -4.3920 ha         1 8U0       0.131000
     44 H13         10.8740     8.4990    -2.0380 ha         1 8U0       0.136000
     45 H14          9.6620     7.3940    -0.1800 ha         1 8U0       0.148000
     46 H15          7.4150     5.0110     3.2500 ha         1 8U0       0.149500
     47 H16          7.8460     2.6530     3.8220 ha         1 8U0       0.160000
     48 H17          6.1020    -1.4440     2.9700 ha         1 8U0       0.152000
     49 H18          3.6450    -1.2650     2.9730 ha         1 8U0       0.153500
     50 H19          1.6830     0.0830     2.0320 hn         1 8U0       0.327500
     51 H20          9.0940     0.5480     3.0290 hn         1 8U0       0.460800
@<TRIPOS>BOND
     1    28    31 2
     2     9     8 ar
     3     9    10 ar
     4    16    15 ar
     5    16    17 ar
     6    15    14 ar
     7     8     7 ar
     8    17    18 ar
     9    14    13 ar
    10    14    19 ar
    11    13    12 ar
    12    18    19 ar
    13    19    20 ar
    14    12    11 ar
    15    20    11 ar
    16    11    30 1
    17    30    10 1
    18    10    21 ar
    19    29    31 2
    20    31    26 1
    21    31     6 1
    22     7    26 1
    23     7    22 ar
    24    23     6 ar
    25    23    24 ar
    26     6     5 ar
    27    24     3 ar
    28    21    22 ar
    29     5     4 ar
    30     3     4 ar
    31     3    25 1
    32    25     2 1
    33     2     1 1
    34     2    27 2
    35     1    32 1
    36     1    33 1
    37     1    34 1
    38     4    35 1
    39     5    36 1
    40     8    37 1
    41     9    38 1
    42    12    39 1
    43    13    40 1
    44    15    41 1
    45    16    42 1
    46    17    43 1
    47    18    44 1
    48    20    45 1
    49    21    46 1
    50    22    47 1
    51    23    48 1
    52    24    49 1
    53    25    50 1
    54    26    51 1
@<TRIPOS>SUBSTRUCTURE
     1 8U0         1 TEMP              0 ****  ****    0 ROOT
