@<TRIPOS>MOLECULE
8U0
   51    54     1     0     0
SMALL
bcc


@<TRIPOS>ATOM
      1 C1           0.0000     0.0000     0.0000 c3         1 8U0      -0.067100
      2 C2           1.5070     0.0000     0.0000 c          1 8U0       0.562100
      3 C5           3.5760    -0.1010     1.1700 ca         1 8U0      -0.035400
      4 C6           4.3190     0.4990     0.1610 ca         1 8U0      -0.154500
      5 C7           5.6960     0.3960     0.1660 ca         1 8U0       0.027000
      6 C8           6.3360    -0.3020     1.1740 ca         1 8U0      -0.181500
      7 C13          8.4250     2.1170     1.8270 ca         1 8U0       0.019600
      8 C14          8.6100     2.5600     0.5240 ca         1 8U0      -0.104500
      9 C15          8.3660     3.8820     0.2050 ca         1 8U0      -0.147500
     10 C16          7.9370     4.7650     1.1840 ca         1 8U0       0.127100
     11 C18          7.7820     6.4320    -0.4360 ca         1 8U0       0.104100
     12 C19          6.7500     6.0890    -1.3160 ca         1 8U0      -0.128000
     13 C20          6.8060     6.4420    -2.6290 ca         1 8U0      -0.069000
     14 C21          7.9130     7.1600    -3.1120 ca         1 8U0      -0.043000
     15 C22          8.0020     7.5400    -4.4620 ca         1 8U0      -0.084000
     16 C23          9.0880     8.2360    -4.8960 ca         1 8U0      -0.098000
     17 C24         10.1180     8.5780    -4.0210 ca         1 8U0      -0.094000
     18 C25         10.0670     8.2260    -2.7070 ca         1 8U0      -0.088000
     19 C26          8.9600     7.5090    -2.2210 ca         1 8U0      -0.024000
     20 C27          8.8700     7.1350    -0.8710 ca         1 8U0      -0.102000
     21 C28          7.7530     4.3210     2.4860 ca         1 8U0      -0.147500
     22 C29          7.9900     2.9990     2.8050 ca         1 8U0      -0.104500
     23 C30          5.5980    -0.9000     2.1800 ca         1 8U0       0.027000
     24 C31          4.2210    -0.7960     2.1840 ca         1 8U0      -0.154500
     25 N4           2.1800     0.0000     1.1670 ns         1 8U0      -0.045100
     26 N12          8.6720     0.7770     2.1510 nu         1 8U0      -0.388500
     27 O3           2.1130    -0.0010    -1.0500 o          1 8U0      -0.625100
     28 O10          8.4050    -1.6550     1.8280 o          1 8U0      -0.586300
     29 O11          8.5200    -0.1210    -0.1420 o          1 8U0      -0.586300
     30 O17          7.6980     6.0660     0.8690 os         1 8U0      -0.224200
     31 S9           8.0930    -0.4310     1.1770 sy         1 8U0       1.040200
     32 H1          -0.3610     0.2130    -0.9990 hc         1 8U0       0.025367
     33 H2          -0.3610    -0.9710     0.3150 hc         1 8U0       0.025367
     34 H3          -0.3610     0.7590     0.6840 hc         1 8U0       0.025367
     35 H4           3.8180     1.0440    -0.6300 ha         1 8U0       0.131500
     36 H5           6.2770     0.8640    -0.6200 ha         1 8U0       0.123000
     37 H6           8.9480     1.8710    -0.2410 ha         1 8U0       0.136000
     38 H7           8.5100     4.2280    -0.8110 ha         1 8U0       0.122500
     39 H8           5.8970     5.5320    -0.9490 ha         1 8U0       0.115000
     40 H9           6.0000     6.1700    -3.3000 ha         1 8U0       0.109000
     41 H10          7.2090     7.2810    -5.1540 ha         1 8U0       0.107000
     42 H11          9.1540     8.5280    -5.9370 ha         1 8U0       0.102000
     43 H12         10.9720     9.1320    -4.3920 ha         1 8U0       0.102000
     44 H13         10.8740     8.4990    -2.0380 ha         1 8U0       0.108000
     45 H14          9.6620     7.3940    -0.1800 ha         1 8U0       0.120000
     46 H15          7.4150     5.0110     3.2500 ha         1 8U0       0.122500
     47 H16          7.8460     2.6530     3.8220 ha         1 8U0       0.136000
     48 H17          6.1020    -1.4440     2.9700 ha         1 8U0       0.123000
     49 H18          3.6450    -1.2650     2.9730 ha         1 8U0       0.131500
     50 H19          1.6830     0.0830     2.0320 hn         1 8U0       0.171500
     51 H20          9.0940     0.5480     3.0290 hn         1 8U0       0.342800
@<TRIPOS>BOND
     1     1     2 1   
     2     1    32 1   
     3     1    33 1   
     4     1    34 1   
     5     2    25 1   
     6     2    27 2   
     7     3     4 ar  
     8     3    24 ar  
     9     3    25 1   
    10     4     5 ar  
    11     4    35 1   
    12     5     6 ar  
    13     5    36 1   
    14     6    23 ar  
    15     6    31 1   
    16     7     8 ar  
    17     7    22 ar  
    18     7    26 1   
    19     8     9 ar  
    20     8    37 1   
    21     9    10 ar  
    22     9    38 1   
    23    10    21 ar  
    24    10    30 1   
    25    11    12 ar  
    26    11    20 ar  
    27    11    30 1   
    28    12    13 ar  
    29    12    39 1   
    30    13    14 ar  
    31    13    40 1   
    32    14    15 ar  
    33    14    19 ar  
    34    15    16 ar  
    35    15    41 1   
    36    16    17 ar  
    37    16    42 1   
    38    17    18 ar  
    39    17    43 1   
    40    18    19 ar  
    41    18    44 1   
    42    19    20 ar  
    43    20    45 1   
    44    21    22 ar  
    45    21    46 1   
    46    22    47 1   
    47    23    24 ar  
    48    23    48 1   
    49    24    49 1   
    50    25    50 1   
    51    26    31 1   
    52    26    51 1   
    53    28    31 2   
    54    29    31 2   
@<TRIPOS>SUBSTRUCTURE
     1 8U0         1 TEMP              0 ****  ****    0 ROOT
