@<TRIPOS>MOLECULE
molecule
   26    26     1     0     0
SMALL
bcc


@<TRIPOS>ATOM
      1 N1           0.0000     0.0000     0.0000 ns         1 8U1      -0.588900
      2 C4          -2.2140    -0.0010     0.9920 ca         1 8U1      -0.159300
      3 C5          -2.8940     1.1970     0.8710 ca         1 8U1      -0.075000
      4 C6          -4.2530     1.2000     0.6190 ca         1 8U1      -0.193500
      5 C7          -4.9350    -0.0020     0.4860 ca         1 8U1       0.149100
      6 C8          -4.2500    -1.2020     0.6060 ca         1 8U1      -0.193500
      7 C10         -6.9070    -1.2750     0.1130 c3         1 8U1       0.128700
      8 C1           2.1020     0.0060    -1.3040 c3         1 8U1      -0.171100
      9 C2           1.3480     0.0000     0.0000 c          1 8U1       0.653100
     10 C3          -0.7330     0.0000     1.2690 c3         1 8U1       0.165300
     11 C9          -2.8930    -1.1980     0.8660 ca         1 8U1      -0.075000
     12 O1          -6.2700    -0.0020     0.2380 os         1 8U1      -0.326900
     13 O2           1.9540    -0.0040     1.0510 o          1 8U1      -0.611100
     14 H1          -0.5000    -0.0000    -0.8670 hn         1 8U1       0.316500
     15 H2          -2.3610     2.1340     0.9750 ha         1 8U1       0.137000
     16 H3          -4.7850     2.1390     0.5250 ha         1 8U1       0.141500
     17 H4          -4.7800    -2.1410     0.5060 ha         1 8U1       0.141500
     18 H5          -6.7830    -1.8330     1.0330 h1         1 8U1       0.042700
     19 H6          -7.9630    -1.1330    -0.0830 h1         1 8U1       0.042700
     20 H7          -6.4590    -1.8240    -0.7060 h1         1 8U1       0.042700
     21 H8           3.1670     0.0070    -1.1050 hc         1 8U1       0.060367
     22 H9           1.8430    -0.8760    -1.8760 hc         1 8U1       0.060367
     23 H10          1.8390     0.8930    -1.8690 hc         1 8U1       0.060367
     24 H11         -0.4720    -0.8840     1.8370 h1         1 8U1       0.057700
     25 H12         -0.4720     0.8850     1.8370 h1         1 8U1       0.057700
     26 H13         -2.3580    -2.1360     0.9610 ha         1 8U1       0.137000
@<TRIPOS>BOND
     1     4     3 ar  
     2     4     5 ar  
     3    12     5 1   
     4    12     7 1   
     5     3     2 ar  
     6     5     6 ar  
     7     2    10 1   
     8     2    11 ar  
     9     6    11 ar  
    10    10     1 1   
    11     1     9 1   
    12     9     8 1   
    13     9    13 2   
    14     1    14 1   
    15     3    15 1   
    16     4    16 1   
    17     6    17 1   
    18     7    18 1   
    19     7    19 1   
    20     7    20 1   
    21     8    21 1   
    22     8    22 1   
    23     8    23 1   
    24    10    24 1   
    25    10    25 1   
    26    11    26 1   
@<TRIPOS>SUBSTRUCTURE
     1 8U1         1 TEMP              0 ****  ****    0 ROOT
