@<TRIPOS>MOLECULE
8U1
   26    26     1     0     0
SMALL
bcc


@<TRIPOS>ATOM
      1 N1           0.0000     0.0000     0.0000 ns         1 8U1      -0.204900
      2 C4          -2.2140    -0.0010     0.9920 ca         1 8U1      -0.173300
      3 C5          -2.8940     1.1970     0.8710 ca         1 8U1      -0.040500
      4 C6          -4.2530     1.2000     0.6190 ca         1 8U1      -0.179500
      5 C7          -4.9350    -0.0020     0.4860 ca         1 8U1       0.160100
      6 C8          -4.2500    -1.2020     0.6060 ca         1 8U1      -0.179500
      7 C10         -6.9070    -1.2750     0.1130 c3         1 8U1       0.244700
      8 C1           2.1020     0.0060    -1.3040 c3         1 8U1      -0.067100
      9 C2           1.3480     0.0000     0.0000 c          1 8U1       0.567100
     10 C3          -0.7330     0.0000     1.2690 c3         1 8U1       0.120300
     11 C9          -2.8930    -1.1980     0.8660 ca         1 8U1      -0.040500
     12 O1          -6.2700    -0.0020     0.2380 os         1 8U1      -0.306900
     13 O2           1.9540    -0.0040     1.0510 o          1 8U1      -0.650100
     14 H1          -0.5000    -0.0000    -0.8670 hn         1 8U1       0.176500
     15 H2          -2.3610     2.1340     0.9750 ha         1 8U1       0.107000
     16 H3          -4.7850     2.1390     0.5250 ha         1 8U1       0.121000
     17 H4          -4.7800    -2.1410     0.5060 ha         1 8U1       0.121000
     18 H5          -6.7830    -1.8330     1.0330 h1         1 8U1      -0.001633
     19 H6          -7.9630    -1.1330    -0.0830 h1         1 8U1      -0.001633
     20 H7          -6.4590    -1.8240    -0.7060 h1         1 8U1      -0.001633
     21 H8           3.1670     0.0070    -1.1050 hc         1 8U1       0.021367
     22 H9           1.8430    -0.8760    -1.8760 hc         1 8U1       0.021367
     23 H10          1.8390     0.8930    -1.8690 hc         1 8U1       0.021367
     24 H11         -0.4720    -0.8840     1.8370 h1         1 8U1       0.027700
     25 H12         -0.4720     0.8850     1.8370 h1         1 8U1       0.027700
     26 H13         -2.3580    -2.1360     0.9610 ha         1 8U1       0.107000
@<TRIPOS>BOND
     1     1     9 1   
     2     1    10 1   
     3     1    14 1   
     4     2     3 ar  
     5     2    10 1   
     6     2    11 ar  
     7     3     4 ar  
     8     3    15 1   
     9     4     5 ar  
    10     4    16 1   
    11     5     6 ar  
    12     5    12 1   
    13     6    11 ar  
    14     6    17 1   
    15     7    12 1   
    16     7    18 1   
    17     7    19 1   
    18     7    20 1   
    19     8     9 1   
    20     8    21 1   
    21     8    22 1   
    22     8    23 1   
    23     9    13 2   
    24    10    24 1   
    25    10    25 1   
    26    11    26 1   
@<TRIPOS>SUBSTRUCTURE
     1 8U1         1 TEMP              0 ****  ****    0 ROOT
