@<TRIPOS>MOLECULE
molecule
   20    20     1     0     0
SMALL
bcc


@<TRIPOS>ATOM
      1 C1           0.0000     0.0000     0.0000 c3         1 8U3      -0.243300
      2 S2           1.8130     0.0000     0.0000 s6         1 8U3       1.323900
      3 N3           2.2270     0.0000     1.6040 nu         1 8U3      -0.783500
      4 C4           1.8800     1.0850     2.4150 ca         1 8U3       0.126600
      5 C5           2.5810     2.2790     2.3150 ca         1 8U3      -0.127000
      6 C6           2.2360     3.3510     3.1180 ca         1 8U3       0.105900
      7 F7           2.9170     4.5140     3.0220 f          1 8U3      -0.119900
      8 C8           1.1910     3.2330     4.0220 ca         1 8U3       0.104900
      9 F9           0.8550     4.2810     4.8050 f          1 8U3      -0.122900
     10 C10          0.4920     2.0430     4.1210 ca         1 8U3      -0.144000
     11 C11          0.8300     0.9710     3.3180 ca         1 8U3      -0.126000
     12 O12          2.3120    -1.2380    -0.4900 o          1 8U3      -0.621300
     13 O13          2.3120     1.2360    -0.4910 o          1 8U3      -0.621300
     14 H1          -0.3610     0.9920     0.2420 h1         1 8U3       0.100033
     15 H2          -0.3610    -0.7060     0.7380 h1         1 8U3       0.100033
     16 H3          -0.3610    -0.2860    -0.9800 h1         1 8U3       0.100033
     17 H4           2.7600    -0.7570     1.9840 hn         1 8U3       0.469800
     18 H5           3.4340     2.3520     1.6520 ha         1 8U3       0.178000
     19 H6          -0.3250     1.9530     4.8270 ha         1 8U3       0.156000
     20 H7           0.2820     0.0400     3.3960 ha         1 8U3       0.145000
@<TRIPOS>BOND
     1    12     2 2   
     2    13     2 2   
     3     2     1 1   
     4     2     3 1   
     5     3     4 1   
     6     5     4 ar  
     7     5     6 ar  
     8     4    11 ar  
     9     7     6 1   
    10     6     8 ar  
    11    11    10 ar  
    12     8    10 ar  
    13     8     9 1   
    14     1    14 1   
    15     1    15 1   
    16     1    16 1   
    17     3    17 1   
    18     5    18 1   
    19    10    19 1   
    20    11    20 1   
@<TRIPOS>SUBSTRUCTURE
     1 8U3         1 TEMP              0 ****  ****    0 ROOT
