@<TRIPOS>MOLECULE
molecule
   22    22     1     0     0
SMALL
bcc


@<TRIPOS>ATOM
      1 N1           0.0000     0.0000     0.0000 ns         1 8U4      -0.589900
      2 C4          -2.2140     0.0000     0.9940 ca         1 8U4      -0.109300
      3 C5          -2.8930    -1.1970     0.8680 ca         1 8U4      -0.113000
      4 C6          -4.2530    -1.1970     0.6160 ca         1 8U4      -0.122000
      5 C7          -4.9330    -0.0010     0.4890 ca         1 8U4      -0.115000
      6 C8          -4.2530     1.1980     0.6140 ca         1 8U4       0.025400
      7 C1           2.1010     0.0060    -1.3060 c3         1 8U4      -0.171100
      8 C2           1.3470     0.0000     0.0000 c          1 8U4       0.654100
      9 C3          -0.7320     0.0000     1.2690 c3         1 8U4       0.161300
     10 C9          -2.8920     1.1980     0.8620 ca         1 8U4      -0.108000
     11 Cl1         -5.1060     2.7010     0.4480 cl         1 8U4      -0.105400
     12 O1           1.9540    -0.0050     1.0500 o          1 8U4      -0.609100
     13 H1          -0.5000     0.0120    -0.8670 hn         1 8U4       0.317500
     14 H2          -2.3610    -2.1350     0.9670 ha         1 8U4       0.140000
     15 H3          -4.7850    -2.1350     0.5170 ha         1 8U4       0.140000
     16 H4          -5.9990    -0.0010     0.2930 ha         1 8U4       0.146000
     17 H5           1.8410     0.8950    -1.8680 hc         1 8U4       0.061033
     18 H6           1.8370    -0.8740    -1.8790 hc         1 8U4       0.061033
     19 H7           3.1660     0.0030    -1.1080 hc         1 8U4       0.061033
     20 H8          -0.4700     0.8840     1.8370 h1         1 8U4       0.061700
     21 H9          -0.4700    -0.8850     1.8370 h1         1 8U4       0.061700
     22 H10         -2.3590     2.1360     0.9610 ha         1 8U4       0.149000
@<TRIPOS>BOND
     1    11     6 1
     2     6    10 ar
     3     6     5 ar
     4    10     2 ar
     5     5     4 ar
     6     2     9 1
     7     2     3 ar
     8     4     3 ar
     9     9     1 1
    10     1     8 1
    11     8     7 1
    12     8    12 2
    13     1    13 1
    14     3    14 1
    15     4    15 1
    16     5    16 1
    17     7    17 1
    18     7    18 1
    19     7    19 1
    20     9    20 1
    21     9    21 1
    22    10    22 1
@<TRIPOS>SUBSTRUCTURE
     1 8U4         1 TEMP              0 ****  ****    0 ROOT
