@<TRIPOS>MOLECULE
8U6
   52    55     1     0     0
SMALL
bcc


@<TRIPOS>ATOM
      1 C4           0.0000     0.0000     0.0000 ca         1 8U6      -0.112000
      2 C14          7.4810     3.5350    -0.8670 ca         1 8U6       0.068600
      3 C5           1.4050     0.0000     0.0000 ca         1 8U6      -0.013000
      4 C6           2.0990     0.0000     1.2360 ca         1 8U6       0.012000
      5 C11          6.1770     1.1600    -0.2480 ca         1 8U6       0.139100
      6 C7           2.1330     0.0010    -1.2020 ca         1 8U6      -0.086000
      7 C8           3.4920     0.0010    -1.1660 ca         1 8U6      -0.138000
      8 C9           4.1800     0.0010     0.0510 ca         1 8U6       0.084100
      9 C10          3.5040     0.0000     1.2380 ca         1 8U6      -0.110000
     10 C12          5.4490     2.2710    -0.6460 ca         1 8U6      -0.168000
     11 C13          6.0960     3.4510    -0.9540 ca         1 8U6      -0.139000
     12 N1           8.9440    -0.7960     0.6050 n1         1 8U6      -0.389800
     13 C3          -0.6740     0.0000     1.1820 ca         1 8U6      -0.122000
     14 N3           6.3340     6.0200     4.9410 ns         1 8U6      -0.472100
     15 C1           1.3690    -0.0010     2.4370 ca         1 8U6      -0.092000
     16 C2           0.0090    -0.0000     2.3970 ca         1 8U6      -0.089000
     17 O1           5.5380     0.0010     0.0550 os         1 8U6      -0.218200
     18 C15          8.2210     2.4360    -0.4660 ca         1 8U6      -0.087000
     19 C16          7.5730     1.2400    -0.1530 ca         1 8U6       0.022000
     20 C17          8.3320     0.0980     0.2620 cg         1 8U6       0.244800
     21 S1           7.2390     6.1920    -1.1130 sy         1 8U6       1.118200
     22 C18          7.1110     6.2020     0.9390 ca         1 8U6      -0.000500
     23 C19          8.0230     6.4140     1.5860 ca         1 8U6      -0.013000
     24 C20          7.8290     6.3980     3.0310 ca         1 8U6      -0.253000
     25 C21          6.6640     6.1550     3.6700 ca         1 8U6       0.013600
     26 C22          5.5510     5.8900     2.5650 ca         1 8U6      -0.253000
     27 C23          5.9460     5.9520     1.2470 ca         1 8U6      -0.013000
     28 O2           7.8110     7.1550    -1.5560 o          1 8U6      -0.620300
     29 O3           5.9410     6.1930    -1.7120 o          1 8U6      -0.620300
     30 C24          7.6360     6.6910     5.9470 c          1 8U6       0.714100
     31 C25          7.4160     5.9860     7.5350 c3         1 8U6      -0.013100
     32 O4           8.2400     7.0640     5.4300 o          1 8U6      -0.229100
     33 H1          -0.8280    -0.2370    -0.6580 ha         1 8U6       0.122000
     34 H2           1.6830    -0.4270    -2.0890 ha         1 8U6       0.110000
     35 H3           3.8190    -0.2980    -2.1550 ha         1 8U6       0.120000
     36 H4           4.3720     0.1190     1.8750 ha         1 8U6       0.141000
     37 H5           4.3680     2.2330    -0.6930 ha         1 8U6       0.137000
     38 H6           5.3930     4.1420    -1.4040 ha         1 8U6       0.168000
     39 H7           9.0500     4.6900    -1.5660 hn         1 8U6       0.331800
     40 H8          -1.7350    -0.0770     0.9750 ha         1 8U6       0.105000
     41 H9           5.4730     5.5950     5.2260 hn         1 8U6       0.193500
     42 H10          1.7940     0.1720     3.4180 ha         1 8U6       0.110000
     43 H11         -0.4910    -0.0390     3.3580 ha         1 8U6       0.101000
     44 H12          9.2930     2.4850    -0.6190 ha         1 8U6       0.117000
     45 H13          9.0200     6.6670     1.2460 ha         1 8U6       0.104000
     46 H14          8.7390     6.7150     3.5250 ha         1 8U6       0.104000
     47 H15          4.6700     5.7120     3.1690 ha         1 8U6       0.104000
     48 H16          5.0550     5.7530     0.6630 ha         1 8U6       0.104000
     49 H17          6.4720     6.4660     7.7610 hc         1 8U6       0.026367
     50 H18          8.0990     6.6670     8.0290 hc         1 8U6       0.026367
     51 H19          7.5110     4.9070     7.5130 hc         1 8U6       0.026367
     52 N2           8.1280     4.7360    -1.1800 nu         1 8U6      -0.417500
@<TRIPOS>BOND
     1     1     3 ar  
     2     1    13 ar  
     3     1    33 1   
     4     2    11 ar  
     5     2    18 ar  
     6     2    52 1   
     7     3     4 ar  
     8     3     6 ar  
     9     4     9 ar  
    10     4    15 ar  
    11     5    10 ar  
    12     5    17 1   
    13     5    19 ar  
    14     6     7 ar  
    15     6    34 1   
    16     7     8 ar  
    17     7    35 1   
    18     8     9 ar  
    19     8    17 1   
    20     9    36 1   
    21    10    11 ar  
    22    10    37 1   
    23    11    38 1   
    24    12    20 3   
    25    13    16 ar  
    26    13    40 1   
    27    14    25 1   
    28    14    30 1   
    29    14    41 1   
    30    15    16 ar  
    31    15    42 1   
    32    16    43 1   
    33    18    19 ar  
    34    18    44 1   
    35    19    20 1   
    36    21    22 1   
    37    21    28 2   
    38    21    29 2   
    39    21    52 1   
    40    22    23 ar  
    41    22    27 ar  
    42    23    24 ar  
    43    23    45 1   
    44    24    25 ar  
    45    24    46 1   
    46    25    26 ar  
    47    26    27 ar  
    48    26    47 1   
    49    27    48 1   
    50    30    31 1   
    51    30    32 2   
    52    31    49 1   
    53    31    50 1   
    54    31    51 1   
    55    39    52 1   
@<TRIPOS>SUBSTRUCTURE
     1 8U6         1 TEMP              0 ****  ****    0 ROOT
