@<TRIPOS>MOLECULE
8U7
   39    40     1     0     0
SMALL
bcc


@<TRIPOS>ATOM
      1 N1           0.0000     0.0000     0.0000 ns         1 8U7      -0.221900
      2 N3          -5.0460     0.8440     3.9770 n3         1 8U7      -0.538600
      3 C4          -4.1430    -0.6100     2.2250 c3         1 8U7      -0.041400
      4 C5          -4.9250    -0.5520     3.5390 c3         1 8U7       0.151800
      5 C6          -3.7270     1.4370     4.2310 c3         1 8U7       0.151800
      6 C7          -2.9080     1.4380     2.9380 c3         1 8U7      -0.041400
      7 C8          -5.9080     0.9520     5.1610 c3         1 8U7       0.212100
      8 C10         -7.7220    -0.7540     4.9040 ca         1 8U7      -0.091500
      9 C13         -9.4930     1.1650     3.9970 ca         1 8U7      -0.102000
     10 C1           1.4650     0.0000     0.0000 c3         1 8U7       0.104300
     11 C2          -0.6730     0.0000     1.1670 c          1 8U7       0.579100
     12 N2          -2.0220    -0.0000     1.1670 ns         1 8U7      -0.214900
     13 C3          -2.7540    -0.0000     2.4350 c3         1 8U7       0.031700
     14 C9          -7.3170     0.5640     4.7930 ca         1 8U7      -0.091300
     15 C11         -9.0120    -1.1110     4.5610 ca         1 8U7      -0.102000
     16 C12         -9.8980    -0.1520     4.1080 ca         1 8U7      -0.101000
     17 C14         -8.2050     1.5240     4.3450 ca         1 8U7      -0.091500
     18 O1          -0.0660    -0.0010     2.2200 o          1 8U7      -0.706100
     19 H1          -0.5000    -0.0210    -0.8670 hn         1 8U7       0.162500
     20 H3          -4.0390    -1.6430     1.9130 hc         1 8U7       0.026200
     21 H4          -4.6720    -0.0490     1.4650 hc         1 8U7       0.026200
     22 H5          -5.9140    -0.9680     3.3870 h1         1 8U7       0.014200
     23 H6          -4.4000    -1.1220     4.2960 h1         1 8U7       0.014200
     24 H7          -3.8520     2.4560     4.5780 h1         1 8U7       0.014200
     25 H8          -3.2090     0.8550     4.9840 h1         1 8U7       0.014200
     26 H9          -3.4200     2.0290     2.1880 hc         1 8U7       0.026200
     27 H10         -1.9290     1.8590     3.1310 hc         1 8U7       0.026200
     28 H11         -5.8980     1.9730     5.5230 h1         1 8U7       0.012700
     29 H12         -5.5420     0.2900     5.9360 h1         1 8U7       0.012700
     30 H14        -10.1880     1.9170     3.6440 ha         1 8U7       0.102000
     31 H15          1.8260     0.0180    -1.0210 h1         1 8U7       0.006700
     32 H16          1.8260    -0.8930     0.4950 h1         1 8U7       0.006700
     33 H17          1.8260     0.8750     0.5260 h1         1 8U7       0.006700
     34 H18         -2.5220    -0.0090     0.3010 hn         1 8U7       0.165500
     35 H19         -2.2130    -0.5820     3.1710 h1         1 8U7       0.057700
     36 H20         -9.3290    -2.1430     4.6480 ha         1 8U7       0.102000
     37 H21        -10.9090    -0.4330     3.8370 ha         1 8U7       0.101000
     38 H22         -7.8880     2.5560     4.2580 ha         1 8U7       0.107000
     39 H13         -7.0270    -1.5060     5.2590 ha         1 8U7       0.107000
@<TRIPOS>BOND
     1     1    10 1   
     2     1    11 1   
     3     1    19 1   
     4     2     4 1   
     5     2     5 1   
     6     2     7 1   
     7     3     4 1   
     8     3    13 1   
     9     3    20 1   
    10     3    21 1   
    11     4    22 1   
    12     4    23 1   
    13     5     6 1   
    14     5    24 1   
    15     5    25 1   
    16     6    13 1   
    17     6    26 1   
    18     6    27 1   
    19     7    14 1   
    20     7    28 1   
    21     7    29 1   
    22     8    14 ar  
    23     8    15 ar  
    24     8    39 1   
    25     9    16 ar  
    26     9    17 ar  
    27     9    30 1   
    28    10    31 1   
    29    10    32 1   
    30    10    33 1   
    31    11    12 1   
    32    11    18 2   
    33    12    13 1   
    34    12    34 1   
    35    13    35 1   
    36    14    17 ar  
    37    15    16 ar  
    38    15    36 1   
    39    16    37 1   
    40    17    38 1   
@<TRIPOS>SUBSTRUCTURE
     1 8U7         1 TEMP              0 ****  ****    0 ROOT
