@<TRIPOS>MOLECULE
molecule
   40    42     1     0     0
SMALL
bcc


@<TRIPOS>ATOM
      1 C15          0.0000     0.0000     0.0000 c3         1 8U8      -0.061900
      2 C13          1.5070     0.0000     0.0000 cc         1 8U8       0.052600
      3 C14          2.2050     0.0000     1.1660 cd         1 8U8      -0.318200
      4 C16          3.6140    -0.0010     1.1400 c          1 8U8       0.749800
      5 O9           4.2270    -0.0010     2.1920 o          1 8U8      -0.612500
      6 O8           4.2980     0.0000    -0.0150 os         1 8U8      -0.309200
      7 C11          3.6660    -0.0000    -1.2090 ca         1 8U8       0.194100
      8 C10          4.3880    -0.0000    -2.3930 ca         1 8U8      -0.196000
      9 C12          2.2600    -0.0060    -1.2560 ca         1 8U8      -0.211800
     10 C7           1.6000    -0.0060    -2.4900 ca         1 8U8      -0.036000
     11 C8           2.3250    -0.0020    -3.6460 ca         1 8U8      -0.214000
     12 C9           3.7180    -0.0010    -3.6060 ca         1 8U8       0.216100
     13 O2           4.4260    -0.0010    -4.7650 os         1 8U8      -0.328900
     14 C5           3.6770    -0.0010    -5.9820 c3         1 8U8       0.315900
     15 O1           2.9430    -1.2220    -6.0900 os         1 8U8      -0.372600
     16 C1           3.7590    -2.3960    -6.0730 c3         1 8U8       0.038100
     17 C6           2.8820    -3.6180    -6.1630 c          1 8U8       0.906600
     18 O7           3.4240    -4.8420    -6.0630 o          1 8U8      -0.826800
     19 O6           1.6900    -3.4960    -6.3260 o          1 8U8      -0.826800
     20 C2           4.7190    -2.3660    -7.2650 c3         1 8U8       0.131100
     21 O5           3.9710    -2.3790    -8.4820 oh         1 8U8      -0.560800
     22 C3           5.5650    -1.0910    -7.1970 c3         1 8U8       0.109100
     23 O4           6.3620    -1.1090    -6.0120 oh         1 8U8      -0.578800
     24 C4           4.6340     0.1250    -7.1700 c3         1 8U8       0.129100
     25 O3           3.8830     0.1790    -8.3850 oh         1 8U8      -0.544800
     26 H1          -0.3610     0.8980    -0.4870 hc         1 8U8       0.052033
     27 H2          -0.3610    -0.8710    -0.5340 hc         1 8U8       0.052033
     28 H3          -0.3610    -0.0270     1.0210 hc         1 8U8       0.052033
     29 H4           1.6810     0.0780     2.1110 ha         1 8U8       0.157000
     30 H5           5.4670     0.0920    -2.3710 ha         1 8U8       0.160000
     31 H6           0.5210     0.0800    -2.5270 ha         1 8U8       0.135000
     32 H7           1.8140     0.0110    -4.6020 ha         1 8U8       0.175000
     33 H8           2.9870     0.8350    -5.9870 h2         1 8U8       0.060700
     34 H9           4.3300    -2.4230    -5.1520 h1         1 8U8       0.059700
     35 H11          5.3690    -3.2320    -7.2250 h1         1 8U8       0.059700
     36 H12          4.3530    -3.0000    -9.0790 ho         1 8U8       0.382000
     37 H13          6.2040    -1.0360    -8.0690 h1         1 8U8       0.022700
     38 H14          7.2750    -1.0780    -6.2470 ho         1 8U8       0.387000
     39 H15          5.2230     1.0270    -7.0640 h1         1 8U8       0.022700
     40 H16          3.9800     1.0310    -8.7770 ho         1 8U8       0.380000
@<TRIPOS>BOND
     1    19    17 1   
     2    21    20 1   
     3    17    18 1   
     4    17    16 1   
     5    15    14 1   
     6    15    16 1   
     7    13    14 1   
     8    13    12 1   
     9    14    24 1   
    10    20    16 1   
    11    20    22 1   
    12     8    12 ar  
    13     8     7 ar  
    14     6     7 1   
    15     6     4 1   
    16    12    11 ar  
    17    22    24 1   
    18    22    23 1   
    19     5     4 2   
    20     7     9 ar  
    21    24    25 1   
    22     4     3 1   
    23    11    10 ar  
    24     9    10 ar  
    25     9     2 1   
    26     3     2 2   
    27     2     1 1   
    28     1    26 1   
    29     1    27 1   
    30     1    28 1   
    31     3    29 1   
    32     8    30 1   
    33    10    31 1   
    34    11    32 1   
    35    14    33 1   
    36    16    34 1   
    37    20    35 1   
    38    21    36 1   
    39    22    37 1   
    40    23    38 1   
    41    24    39 1   
    42    25    40 1   
@<TRIPOS>SUBSTRUCTURE
     1 8U8         1 TEMP              0 ****  ****    0 ROOT
