@<TRIPOS>MOLECULE
molecule
   44    46     1     0     0
SMALL
bcc


@<TRIPOS>ATOM
      1 C4           0.0000     0.0000     0.0000 ca         1 8U9      -0.117000
      2 C14          3.0250     3.6600     6.6240 ca         1 8U9       0.077100
      3 C5           1.3800     0.0000     0.0000 ca         1 8U9      -0.081500
      4 C6           2.0750     0.0000     1.1960 ca         1 8U9      -0.313500
      5 C11          3.5140     4.0160     4.4780 ca         1 8U9       0.110100
      6 C8           4.0530     2.4010     2.2820 ca         1 8U9       0.133600
      7 C9           4.2680     1.9270     3.5720 ca         1 8U9      -0.105000
      8 C10          4.0000     2.7310     4.6620 ca         1 8U9      -0.178000
      9 C12          3.2950     4.5010     3.1810 ca         1 8U9      -0.021000
     10 C13          3.5690     3.6830     2.0820 ca         1 8U9      -0.088000
     11 N1           4.3290     1.5800     1.1820 nu         1 8U9      -0.773500
     12 C3          -0.6940     0.0030     1.2120 ca         1 8U9      -0.023600
     13 C1           1.3940     0.0010     2.4000 ca         1 8U9      -0.081500
     14 C15          4.2210     3.5500     7.0190 ca         1 8U9      -0.145000
     15 C16          4.4510     2.5080     8.0480 ca         1 8U9      -0.113000
     16 C17          3.2800     1.9550     8.2790 ca         1 8U9       0.107400
     17 C18          1.9020     2.1930     7.7190 ca         1 8U9      -0.280300
     18 C19          1.8820     3.4880     7.0820 ca         1 8U9      -0.062000
     19 C2           0.0140    -0.0030     2.4150 ca         1 8U9      -0.117000
     20 C20          2.7930     5.8270     2.9830 cg         1 8U9       0.258800
     21 C21          0.6470     1.1730     7.6400 c3         1 8U9       0.889200
     22 F1           0.8530    -0.1010     6.8750 f          1 8U9      -0.197633
     23 F2           0.6120     1.0300     8.8180 f          1 8U9      -0.197633
     24 F3          -0.1370     1.8760     7.2550 f          1 8U9      -0.197633
     25 O1          -2.7840     0.0120     0.1720 o          1 8U9      -0.823800
     26 O2          -2.8380     0.0100     2.3910 o          1 8U9      -0.823800
     27 O3           4.2450    -0.5460     2.4340 o          1 8U9      -0.652800
     28 O4           4.2310    -0.5480    -0.0650 o          1 8U9      -0.652800
     29 S1           3.8380    -0.0020     1.1860 sy         1 8U9       1.417200
     30 Cl1          3.1770     0.3390     9.4580 cl         1 8U9      -0.245400
     31 H1          -0.3580     0.0380    -1.0220 ha         1 8U9       0.148500
     32 H2           1.9210    -0.0310    -0.9380 ha         1 8U9       0.135500
     33 H3           4.6970     0.9440     3.7230 ha         1 8U9       0.193000
     34 H4           4.1210     2.3370     5.6640 ha         1 8U9       0.169000
     35 H5           3.4210     4.0550     1.0760 ha         1 8U9       0.151000
     36 H6           4.8480     1.9400     0.4060 hn         1 8U9       0.456800
     37 H7           1.6840    -0.2040     3.4230 ha         1 8U9       0.135500
     38 H8           4.8960     4.3930     6.9410 ha         1 8U9       0.178000
     39 H9           5.3560     2.5260     8.6440 ha         1 8U9       0.180000
     40 H10          1.1390     4.2710     6.9940 ha         1 8U9       0.200000
     41 H11         -0.4070    -0.0110     3.4130 ha         1 8U9       0.148500
     42 C7          -2.1710     0.0090     1.2190 c          1 8U9       0.872200
     43 N2           2.3880     6.8740     2.8090 n1         1 8U9      -0.373800
     44 O5           2.8790     4.7570     5.5630 os         1 8U9      -0.292200
@<TRIPOS>BOND
     1    43    20 3   
     2    20     9 1   
     3    28    29 2   
     4    22    21 1   
     5     9    10 ar  
     6     9     5 ar  
     7    10     6 ar  
     8    30    16 1   
     9    15    16 ar  
    10    15    14 ar  
    11    16    17 ar  
    12    14     2 ar  
    13    17    21 1   
    14    17    18 ar  
    15     2    18 ar  
    16     2    44 1   
    17    21    24 1   
    18    21    23 1   
    19    44     5 1   
    20    29    27 2   
    21    29    11 1   
    22    29     4 1   
    23     5     8 ar  
    24     3     4 ar  
    25     3     1 ar  
    26     6    11 1   
    27     6     7 ar  
    28     4    13 ar  
    29     1    12 ar  
    30     8     7 ar  
    31    13    19 ar  
    32    12    19 ar  
    33    12    42 1   
    34    25    42 1   
    35    42    26 1   
    36     1    31 1   
    37     3    32 1   
    38     7    33 1   
    39     8    34 1   
    40    10    35 1   
    41    11    36 1   
    42    13    37 1   
    43    14    38 1   
    44    15    39 1   
    45    18    40 1   
    46    19    41 1   
@<TRIPOS>SUBSTRUCTURE
     1 8U9         1 TEMP              0 ****  ****    0 ROOT
