@<TRIPOS>MOLECULE
molecule
   21    21     1     0     0
SMALL
bcc


@<TRIPOS>ATOM
      1 N1           0.0000     0.0000     0.0000 ns         1 8UA      -0.584900
      2 C4          -2.2150    -0.0000     0.9930 ca         1 8UA       0.394600
      3 C5          -2.9060    -1.1970     0.9700 ca         1 8UA      -0.237300
      4 C6          -4.2680    -1.1870     0.7150 ca         1 8UA      -0.095000
      5 C7          -4.8880     0.0320     0.4900 ca         1 8UA      -0.248300
      6 C8          -4.1320     1.1890     0.5280 ca         1 8UA       0.419200
      7 C1           2.1010     0.0070    -1.3040 c3         1 8UA      -0.171100
      8 C2           1.3480     0.0000     0.0000 c          1 8UA       0.657100
      9 C3          -0.7330     0.0000     1.2680 c3         1 8UA       0.070700
     10 N2          -2.8360     1.1410     0.7690 nb         1 8UA      -0.680000
     11 O1           1.9530    -0.0040     1.0510 o          1 8UA      -0.610100
     12 H1          -0.5000     0.0040    -0.8670 hn         1 8UA       0.317500
     13 H2          -2.3890    -2.1320     1.1510 ha         1 8UA       0.143000
     14 H3          -4.8340    -2.1100     0.6920 ha         1 8UA       0.140000
     15 H4          -5.9520     0.0780     0.2900 ha         1 8UA       0.140000
     16 H5          -4.6080     2.1460     0.3510 h4         1 8UA       0.026100
     17 H6           3.1660     0.0070    -1.1060 hc         1 8UA       0.060700
     18 H7           1.8390     0.8940    -1.8680 hc         1 8UA       0.060700
     19 H8           1.8410    -0.8750    -1.8770 hc         1 8UA       0.060700
     20 H9          -0.4720     0.8850     1.8360 h1         1 8UA       0.068200
     21 H10         -0.4720    -0.8840     1.8360 h1         1 8UA       0.068200
@<TRIPOS>BOND
     1     6     5 ar  
     2     6    10 ar  
     3     5     4 ar  
     4    10     2 ar  
     5     4     3 ar  
     6     2     3 ar  
     7     2     9 1   
     8     9     1 1   
     9     1     8 1   
    10     8     7 1   
    11     8    11 2   
    12     1    12 1   
    13     3    13 1   
    14     4    14 1   
    15     5    15 1   
    16     6    16 1   
    17     7    17 1   
    18     7    18 1   
    19     7    19 1   
    20     9    20 1   
    21     9    21 1   
@<TRIPOS>SUBSTRUCTURE
     1 8UA         1 TEMP              0 ****  ****    0 ROOT
