@<TRIPOS>MOLECULE
8UB
   28    32     1     0     0
SMALL
bcc


@<TRIPOS>ATOM
      1 C4           0.0000     0.0000     0.0000 ca         1 8UB      -0.121000
      2 C5           1.3900     0.0000     0.0000 ca         1 8UB      -0.141000
      3 C6          -2.0450    -0.0000    -1.1730 c2         1 8UB       0.195000
      4 N1          -2.0420     0.0090     1.2480 n2         1 8UB      -0.050000
      5 C7          -2.7410    -0.0020     0.1300 c3         1 8UB      -0.090000
      6 C8          -4.2020     0.0040     0.1800 c2         1 8UB      -0.086000
      7 O           -2.6810     0.0010    -2.2110 o          1 8UB      -0.370000
      8 N           -0.6940     0.0000    -1.1970 ns         1 8UB       0.192000
      9 C            2.0780     0.0000     1.1960 ca         1 8UB      -0.055000
     10 C3          -0.6960     0.0040     1.2230 ca         1 8UB      -0.076000
     11 C2           0.0270     0.0040     2.4260 ca         1 8UB      -0.032000
     12 C1           1.3910    -0.0010     2.4030 ca         1 8UB      -0.127000
     13 H1           1.9330     0.0010    -0.9380 ha         1 8UB       0.112000
     14 H2          -3.5880    -0.8710     0.3550 DU         1 8UB       0.159000
     15 H5          -0.2030     0.0010    -2.0690 hn         1 8UB       0.096000
     16 H6           3.1610    -0.0040     1.1940 ha         1 8UB       0.105000
     17 H7          -0.4990     0.0030     3.3740 ha         1 8UB       0.120000
     18 H8           1.9440    -0.0010     3.3340 ha         1 8UB       0.109000
     19 C9          -4.8390     0.0220     1.3760 c2         1 8UB      -0.050000
     20 C10         -6.2560     0.0270     1.4240 c3         1 8UB      -0.242000
     21 C11         -7.0090     0.0450     2.5660 c2         1 8UB      -0.155000
     22 C12         -8.3670     0.0470     2.3510 c2         1 8UB      -0.110000
     23 C13         -8.7410     0.0320     1.0640 c2         1 8UB      -0.279000
     24 S1          -7.3230     0.0210     0.0250 ss         1 8UB       0.296000
     25 H3          -5.4540     0.8960     1.2010 DU         1 8UB       0.195000
     26 H9          -6.5720     0.0560     3.5570 ha         1 8UB       0.134000
     27 H11         -9.0830     0.0580     3.1630 ha         1 8UB       0.120000
     28 H13         -9.7660     0.0320     0.7160 h4         1 8UB       0.150000
@<TRIPOS>BOND
     1     1     2 1   
     2     1     8 1   
     3     1    10 1   
     4     2     9 1   
     5     2    13 1   
     6     3     5 1   
     7     3     7 1   
     8     3     8 1   
     9     4     5 1   
    10     4    10 1   
    11     5     6 1   
    12     5    14 1   
    13     6    14 1   
    14     6    19 1   
    15     8    15 1   
    16     9    12 1   
    17     9    16 1   
    18    10    11 1   
    19    11    12 1   
    20    11    17 1   
    21    12    18 1   
    22    19    20 1   
    23    19    25 1   
    24    20    21 1   
    25    20    24 1   
    26    20    25 1   
    27    21    22 1   
    28    21    26 1   
    29    22    23 1   
    30    22    27 1   
    31    23    24 1   
    32    23    28 1   
@<TRIPOS>SUBSTRUCTURE
     1 8UB         1 TEMP              0 ****  ****    0 ROOT
