@<TRIPOS>MOLECULE
molecule
   28    30     1     0     0
SMALL
bcc


@<TRIPOS>ATOM
      1 C4           0.0000     0.0000     0.0000 ca         1 8UB       0.043600
      2 C5           1.3900     0.0000     0.0000 ca         1 8UB      -0.178000
      3 C6          -2.0450    -0.0000    -1.1730 c          1 8UB       0.569200
      4 N1          -2.0420     0.0090     1.2480 nc         1 8UB      -0.547100
      5 C7          -2.7410    -0.0020     0.1300 cc         1 8UB       0.433600
      6 C8          -4.2020     0.0040     0.1800 ce         1 8UB      -0.222600
      7 O           -2.6810     0.0010    -2.2110 o          1 8UB      -0.620500
      8 N           -0.6940     0.0000    -1.1970 ns         1 8UB      -0.423100
      9 C            2.0780     0.0000     1.1960 ca         1 8UB      -0.079000
     10 C3          -0.6960     0.0040     1.2230 ca         1 8UB       0.083400
     11 C2           0.0270     0.0040     2.4260 ca         1 8UB      -0.052000
     12 C1           1.3910    -0.0010     2.4030 ca         1 8UB      -0.161000
     13 H1           1.9330     0.0010    -0.9380 ha         1 8UB       0.137000
     14 H2          -4.7760    -0.0060    -0.7390 ha         1 8UB       0.159000
     15 H5          -0.2030     0.0010    -2.0690 hn         1 8UB       0.343500
     16 H6           3.1610    -0.0040     1.1940 ha         1 8UB       0.137000
     17 H7          -0.4990     0.0030     3.3740 ha         1 8UB       0.152000
     18 H8           1.9440    -0.0010     3.3340 ha         1 8UB       0.139000
     19 C9          -4.8390     0.0220     1.3760 cf         1 8UB      -0.028200
     20 C10         -6.2560     0.0270     1.4240 cd         1 8UB      -0.022900
     21 C11         -7.0090     0.0450     2.5660 cc         1 8UB      -0.135000
     22 C12         -8.3670     0.0470     2.3510 cc         1 8UB      -0.160000
     23 C13         -8.7410     0.0320     1.0640 cd         1 8UB      -0.071100
     24 S1          -7.3230     0.0210     0.0250 ss         1 8UB      -0.127800
     25 H3          -4.2650     0.0320     2.2950 ha         1 8UB       0.160000
     26 H9          -6.5720     0.0560     3.5570 ha         1 8UB       0.151000
     27 H11         -9.0830     0.0580     3.1630 ha         1 8UB       0.148000
     28 H13         -9.7660     0.0320     0.7160 h4         1 8UB       0.171000
@<TRIPOS>BOND
     1     6     5 1
     2     4     5 2
     3     4    10 1
     4    11    10 ar
     5    11    12 ar
     6     5     3 1
     7    10     1 ar
     8    12     9 ar
     9     3     7 2
    10     3     8 1
    11     1     8 1
    12     1     2 ar
    13     9     2 ar
    14     2    13 1
    15     6    14 1
    16     8    15 1
    17     9    16 1
    18    11    17 1
    19    12    18 1
    20     6    19 2
    21    19    20 1
    22    20    21 2
    23    21    22 1
    24    22    23 2
    25    20    24 1
    26    19    25 1
    27    21    26 1
    28    22    27 1
    29    23    28 1
    30    23    24 1
@<TRIPOS>SUBSTRUCTURE
     1 8UB         1 TEMP              0 ****  ****    0 ROOT
