@<TRIPOS>MOLECULE
molecule
   51    55     1     0     0
SMALL
bcc


@<TRIPOS>ATOM
      1 C2           0.0000     0.0000     0.0000 c2         1 8UC       0.109100
      2 C3           1.3520     0.0000     0.0000 ce         1 8UC       0.065100
      3 C4           2.1630     0.0000     1.2670 c3         1 8UC       0.138800
      4 C5           1.2540    -0.2890     2.4290 cd         1 8UC      -0.372600
      5 C6          -0.1540    -0.2740     2.2960 cd         1 8UC       0.548600
      6 N9           2.5680    -0.0060    -2.2610 n1         1 8UC      -0.247800
      7 C10          1.5490    -0.5890     3.7020 cc         1 8UC       0.049400
      8 N12         -0.6700    -0.5570     3.4570 nc         1 8UC      -0.459800
      9 C13          2.9310    -0.7130     4.2890 c3         1 8UC      -0.113800
     10 C17          4.4820    -0.3340     0.9480 ca         1 8UC      -0.135300
     11 C19          4.4370    -3.0700     1.2210 cp         1 8UC      -0.034000
     12 C35          5.6360    -2.4080     0.9760 ca         1 8UC      -0.142000
     13 C38          4.2400     1.1450     0.8410 c3         1 8UC      -0.083100
     14 C41          4.4390    -4.5470     1.3650 cp         1 8UC      -0.016000
     15 C18          5.6820    -1.0270     0.8350 ca         1 8UC       0.161900
     16 C14          2.8390     1.3730     1.4560 c3         1 8UC       0.001000
     17 C30          2.9450     1.7250     2.9410 c3         1 8UC      -0.121100
     18 C15          2.0820     2.4620     0.6950 c3         1 8UC      -0.121100
     19 C46          5.6260    -5.2770     1.2560 ca         1 8UC      -0.270800
     20 C45          5.5840    -6.6490     1.3960 ca         1 8UC       0.429200
     21 N44          4.4430    -7.2710     1.6300 nb         1 8UC      -0.655000
     22 C43          3.3010    -6.6190     1.7390 ca         1 8UC       0.429200
     23 C42          3.2550    -5.2450     1.6180 ca         1 8UC      -0.270800
     24 C20          3.2310    -2.3720     1.3350 ca         1 8UC      -0.107000
     25 C16          3.2790    -0.9950     1.1940 ca         1 8UC      -0.101300
     26 C8           2.0390    -0.0020    -1.2550 cg         1 8UC       0.124500
     27 N7          -0.6400     0.0020    -1.2150 nz         1 8UC      -0.680400
     28 N11          0.3810    -0.7610     4.3640 na         1 8UC      -0.014600
     29 O1          -0.7620    -0.0060     1.1110 os         1 8UC      -0.296400
     30 H2           3.5820    -0.6970     3.4230 hc         1 8UC       0.083700
     31 H3           3.2350    -1.7020     4.6090 hc         1 8UC       0.083700
     32 H4           3.5410     0.1440     4.5490 hc         1 8UC       0.083700
     33 H5           6.3320    -3.1290     0.5670 ha         1 8UC       0.170000
     34 H6           4.9540     1.4690     0.0930 hc         1 8UC       0.092700
     35 H7           4.7020     1.3360     1.8020 hc         1 8UC       0.092700
     36 H8           3.7430     2.3800     3.2720 hc         1 8UC       0.058033
     37 H9           3.5820     0.9740     3.3930 hc         1 8UC       0.058033
     38 H10          2.1020     1.5240     3.5910 hc         1 8UC       0.058033
     39 H11          2.7800     3.2280     1.0080 hc         1 8UC       0.058033
     40 H12          2.3790     2.1360    -0.2950 hc         1 8UC       0.058033
     41 H13          1.0300     2.5750     0.9280 hc         1 8UC       0.058033
     42 H14          6.5000    -4.6400     1.1920 ha         1 8UC       0.140000
     43 H15          6.3170    -7.3720     1.0610 h4         1 8UC       0.051100
     44 H16          2.2320    -6.5730     1.9100 h4         1 8UC       0.051100
     45 H17          2.2130    -4.9530     1.6580 ha         1 8UC       0.140000
     46 H18          2.3770    -3.0310     1.4300 ha         1 8UC       0.151000
     47 H19         -0.7850    -0.9490    -1.4900 hn         1 8UC       0.483800
     48 H20         -1.3210     0.7150    -1.3830 hn         1 8UC       0.483800
     49 H1           0.2300    -1.1110     5.2900 hn         1 8UC       0.364700
     50 F29          6.8450    -0.3850     0.5950 f          1 8UC      -0.115900
     51 H73         -0.0130     0.5880    -1.7290 hn         1 8UC       0.483800
@<TRIPOS>BOND
     1    28     8 1
     2    28     7 1
     3    22    21 ar
     4    22    23 ar
     5     9     7 1
     6     8     5 2
     7    21    20 ar
     8     7     4 2
     9    23    14 ar
    10     5     4 1
    11     5    29 1
    12    20    19 ar
    13     4     3 1
    14    14    19 ar
    15    14    11 1
    16    24    11 ar
    17    24    25 ar
    18    17    16 1
    19    29     1 1
    20    11    12 ar
    21     3    25 1
    22     3    16 1
    23     3     2 1
    24    25    10 ar
    25    12    15 ar
    26    16    18 1
    27    16    13 1
    28     1     2 2
    29     1    27 1
    30    10    15 ar
    31    10    13 1
    32     2    26 1
    33    15    50 1
    34    26     6 3
    35     9    30 1
    36     9    31 1
    37     9    32 1
    38    12    33 1
    39    13    34 1
    40    13    35 1
    41    17    36 1
    42    17    37 1
    43    17    38 1
    44    18    39 1
    45    18    40 1
    46    18    41 1
    47    19    42 1
    48    20    43 1
    49    22    44 1
    50    23    45 1
    51    24    46 1
    52    27    47 1
    53    27    48 1
    54    28    49 1
    55    51    27 1
@<TRIPOS>SUBSTRUCTURE
     1 8UC         1 TEMP              0 ****  ****    0 ROOT
