@<TRIPOS>MOLECULE
8UC
   51    55     1     0     0
SMALL
bcc


@<TRIPOS>ATOM
      1 C2           0.0000     0.0000     0.0000 c2         1 8UC      -0.144900
      2 C3           1.3520     0.0000     0.0000 ce         1 8UC       0.161100
      3 C4           2.1630     0.0000     1.2670 c3         1 8UC       0.164800
      4 C5           1.2540    -0.2890     2.4290 cc         1 8UC      -0.393600
      5 C6          -0.1540    -0.2740     2.2960 cc         1 8UC       0.565600
      6 N9           2.5680    -0.0060    -2.2610 n1         1 8UC      -0.232800
      7 C10          1.5490    -0.5890     3.7020 cd         1 8UC      -0.121600
      8 N12         -0.6700    -0.5570     3.4570 nd         1 8UC      -0.610800
      9 C13          2.9310    -0.7130     4.2890 c3         1 8UC      -0.029800
     10 C17          4.4820    -0.3340     0.9480 ca         1 8UC      -0.136300
     11 C19          4.4370    -3.0700     1.2210 cp         1 8UC      -0.028000
     12 C35          5.6360    -2.4080     0.9760 ca         1 8UC      -0.117000
     13 C38          4.2400     1.1450     0.8410 c3         1 8UC      -0.034100
     14 C41          4.4390    -4.5470     1.3650 cp         1 8UC      -0.019000
     15 C18          5.6820    -1.0270     0.8350 ca         1 8UC       0.150900
     16 C14          2.8390     1.3730     1.4560 c3         1 8UC       0.015000
     17 C30          2.9450     1.7250     2.9410 c3         1 8UC      -0.062100
     18 C15          2.0820     2.4620     0.6950 c3         1 8UC      -0.062100
     19 C46          5.6260    -5.2770     1.2560 ca         1 8UC      -0.247300
     20 C45          5.5840    -6.6490     1.3960 ca         1 8UC       0.407200
     21 N44          4.4430    -7.2710     1.6300 nb         1 8UC      -0.531000
     22 C43          3.3010    -6.6190     1.7390 ca         1 8UC       0.407200
     23 C42          3.2550    -5.2450     1.6180 ca         1 8UC      -0.247300
     24 C20          3.2310    -2.3720     1.3350 ca         1 8UC      -0.086000
     25 C16          3.2790    -0.9950     1.1940 ca         1 8UC      -0.113300
     26 C8           2.0390    -0.0020    -1.2550 cg         1 8UC       0.084500
     27 N7          -0.6400     0.0020    -1.2150 nz         1 8UC       0.256600
     28 N11          0.3810    -0.7610     4.3640 na         1 8UC       0.485400
     29 O1          -0.7620    -0.0060     1.1110 os         1 8UC      -0.261400
     30 H2           3.5820    -0.6970     3.4230 hc         1 8UC       0.052033
     31 H3           3.2350    -1.7020     4.6090 hc         1 8UC       0.052033
     32 H4           3.5410     0.1440     4.5490 hc         1 8UC       0.052033
     33 H5           6.3320    -3.1290     0.5670 ha         1 8UC       0.148000
     34 H6           4.9540     1.4690     0.0930 hc         1 8UC       0.067700
     35 H7           4.7020     1.3360     1.8020 hc         1 8UC       0.067700
     36 H8           3.7430     2.3800     3.2720 hc         1 8UC       0.033367
     37 H9           3.5820     0.9740     3.3930 hc         1 8UC       0.033367
     38 H10          2.1020     1.5240     3.5910 hc         1 8UC       0.033367
     39 H11          2.7800     3.2280     1.0080 hc         1 8UC       0.033367
     40 H12          2.3790     2.1360    -0.2950 hc         1 8UC       0.033367
     41 H13          1.0300     2.5750     0.9280 hc         1 8UC       0.033367
     42 H14          6.5000    -4.6400     1.1920 ha         1 8UC       0.122500
     43 H15          6.3170    -7.3720     1.0610 h4         1 8UC       0.005600
     44 H16          2.2320    -6.5730     1.9100 h4         1 8UC       0.005600
     45 H17          2.2130    -4.9530     1.6580 ha         1 8UC       0.122500
     46 H18          2.3770    -3.0310     1.4300 ha         1 8UC       0.129000
     47 H19         -0.7850    -0.9490    -1.4900 hn         1 8UC       0.231467
     48 H20         -1.3210     0.7150    -1.3830 hn         1 8UC       0.231467
     49 H1           0.2300    -1.1110     5.2900 hn         1 8UC       0.173700
     50 F29          6.8450    -0.3850     0.5950 f          1 8UC      -0.107900
     51 H73         -0.0130     0.5880    -1.7290 hn         1 8UC       0.231467
@<TRIPOS>BOND
     1     1     2 2   
     2     1    27 1   
     3     1    29 1   
     4     2     3 1   
     5     2    26 1   
     6     3     4 1   
     7     3    16 1   
     8     3    25 1   
     9     4     5 1   
    10     4     7 2   
    11     5     8 2   
    12     5    29 1   
    13     6    26 3   
    14     7     9 1   
    15     7    28 1   
    16     8    28 1   
    17     9    30 1   
    18     9    31 1   
    19     9    32 1   
    20    10    13 1   
    21    10    15 ar  
    22    10    25 ar  
    23    11    12 ar  
    24    11    14 1   
    25    11    24 ar  
    26    12    15 ar  
    27    12    33 1   
    28    13    16 1   
    29    13    34 1   
    30    13    35 1   
    31    14    19 ar  
    32    14    23 ar  
    33    15    50 1   
    34    16    17 1   
    35    16    18 1   
    36    17    36 1   
    37    17    37 1   
    38    17    38 1   
    39    18    39 1   
    40    18    40 1   
    41    18    41 1   
    42    19    20 ar  
    43    19    42 1   
    44    20    21 ar  
    45    20    43 1   
    46    21    22 ar  
    47    22    23 ar  
    48    22    44 1   
    49    23    45 1   
    50    24    25 ar  
    51    24    46 1   
    52    27    47 1   
    53    27    48 1   
    54    27    51 1   
    55    28    49 1   
@<TRIPOS>SUBSTRUCTURE
     1 8UC         1 TEMP              0 ****  ****    0 ROOT
