@<TRIPOS>MOLECULE
8UD
   20    20     1     0     0
SMALL
bcc


@<TRIPOS>ATOM
      1 N1           0.0000     0.0000     0.0000 ns         1 8UD      -0.203900
      2 C4          -2.8610    -0.1250    -0.0320 ca         1 8UD      -0.049000
      3 C5          -4.2430    -0.1250     0.0220 ca         1 8UD      -0.240300
      4 C6          -4.8780     0.0010     1.2450 ca         1 8UD       0.436200
      5 C7          -2.8650     0.1240     2.3700 ca         1 8UD       0.569200
      6 C1           1.4650     0.0000     0.0000 c3         1 8UD       0.089300
      7 C2          -0.6740     0.0000     1.1670 c          1 8UD       0.602700
      8 C3          -2.1490    -0.0000     1.1670 ca         1 8UD      -0.286900
      9 N2          -4.1890     0.1220     2.3630 nb         1 8UD      -0.605000
     10 O1          -0.0670     0.0000     2.2200 o          1 8UD      -0.638100
     11 H1          -0.5000     0.0150    -0.8670 hn         1 8UD       0.173500
     12 H2          -1.9580     1.1560     3.9210 hn         1 8UD       0.284800
     13 H3          -1.9570    -0.5690     4.0990 hn         1 8UD       0.284800
     14 H4          -2.3430    -0.2230    -0.9790 ha         1 8UD       0.104000
     15 H5          -4.8250    -0.2220    -0.8870 ha         1 8UD       0.114000
     16 H6          -5.9600     0.0030     1.2850 h4         1 8UD      -0.022900
     17 H7           1.8260     0.8850     0.5090 h1         1 8UD       0.009367
     18 H8           1.8260    -0.8840     0.5120 h1         1 8UD       0.009367
     19 H9           1.8260    -0.0010    -1.0210 h1         1 8UD       0.009367
     20 N3          -2.1820     0.2470     3.5650 nv         1 8UD      -0.640500
@<TRIPOS>BOND
     1     1     6 1   
     2     1     7 1   
     3     1    11 1   
     4     2     3 ar  
     5     2     8 ar  
     6     2    14 1   
     7     3     4 ar  
     8     3    15 1   
     9     4     9 ar  
    10     4    16 1   
    11     5     8 ar  
    12     5     9 ar  
    13     5    20 1   
    14     6    17 1   
    15     6    18 1   
    16     6    19 1   
    17     7     8 1   
    18     7    10 2   
    19    12    20 1   
    20    13    20 1   
@<TRIPOS>SUBSTRUCTURE
     1 8UD         1 TEMP              0 ****  ****    0 ROOT
