@<TRIPOS>MOLECULE
molecule
   62    66     1     0     0
SMALL
bcc


@<TRIPOS>ATOM
      1 C2           0.0000     0.0000     0.0000 c2         1 8UF       0.097100
      2 C3           1.3510     0.0000     0.0000 ce         1 8UF       0.081100
      3 C4           2.1630     0.0000     1.2660 c3         1 8UF       0.143800
      4 C5           1.2550    -0.2890     2.4280 cd         1 8UF      -0.348600
      5 C6          -0.1530    -0.2760     2.2960 cd         1 8UF       0.551600
      6 N7          -0.6390     0.0020    -1.2140 nz         1 8UF      -0.655400
      7 C8           2.0390    -0.0000    -1.2570 cg         1 8UF       0.123500
      8 C10          1.5510    -0.5910     3.7010 cc         1 8UF       0.017400
      9 C13          2.9320    -0.7150     4.2870 c3         1 8UF      -0.066800
     10 C16          3.2800    -0.9960     1.1920 ca         1 8UF      -0.056300
     11 C17          4.4530    -0.4230     1.6790 ca         1 8UF      -0.180300
     12 C18          5.6440    -1.1380     1.7210 ca         1 8UF       0.187900
     13 C20          3.2540    -2.3020     0.7290 ca         1 8UF      -0.211000
     14 O54          4.9480    -9.0210    -3.5620 o          1 8UF      -0.853300
     15 C52          5.3430    -7.9220    -3.0730 c          1 8UF       0.806600
     16 O53          5.1490    -6.7550    -3.9160 o          1 8UF      -0.853300
     17 C51          5.1680    -8.0330    -1.7150 c3         1 8UF      -0.080400
     18 C38          5.2710    -6.5490    -1.3610 c3         1 8UF      -0.074700
     19 C37          3.8900    -5.8970    -1.4780 c3         1 8UF      -0.201400
     20 C36          3.9880    -4.4280    -1.0650 c3         1 8UF      -0.359200
     21 C39          5.7760    -6.4000     0.0770 c3         1 8UF      -0.201400
     22 C40          5.8190    -4.9140     0.4470 c3         1 8UF      -0.359200
     23 N35          4.4750    -4.3380     0.3180 nh         1 8UF       0.161000
     24 C19          4.4510    -3.0180     0.7730 ca         1 8UF       0.083600
     25 C41          5.6180    -2.4460     1.2570 ca         1 8UF      -0.181000
     26 F29          6.7810    -0.5810     2.1930 f          1 8UF      -0.120900
     27 C44          4.1900     0.9930     2.1100 c3         1 8UF      -0.030100
     28 C14          2.8400     1.3710     1.4570 c3         1 8UF      -0.053000
     29 C30          2.0140     2.2590     2.3910 c3         1 8UF      -0.082600
     30 N9           2.5790     0.0180    -2.2560 n1         1 8UF      -0.249800
     31 N11          0.3830    -0.7650     4.3630 na         1 8UF      -0.025600
     32 N12         -0.6680    -0.5610     3.4560 nc         1 8UF      -0.464800
     33 O1          -0.7620    -0.0070     1.1120 os         1 8UF      -0.307400
     34 H1          -0.5480    -0.8990    -1.6410 hn         1 8UF       0.473133
     35 H2          -1.6090     0.2100    -1.0810 hn         1 8UF       0.473133
     36 H3           3.6600    -0.3290     3.5830 hc         1 8UF       0.076367
     37 H4           2.9850    -0.1470     5.2080 hc         1 8UF       0.076367
     38 H5           3.1460    -1.7570     4.4930 hc         1 8UF       0.076367
     39 H6           3.7220     1.4600    -0.5020 hc         1 8UF       0.043867
     40 H7           3.5030     3.0370     0.2700 hc         1 8UF       0.043867
     41 H8           2.1080     2.1760    -0.3970 hc         1 8UF       0.043867
     42 H9           3.3040    -2.3480    -0.3520 ha         1 8UF       0.185000
     43 H11          4.1910    -8.4330    -1.4720 hc         1 8UF       0.068200
     44 H12          5.9650    -8.6070    -1.2570 hc         1 8UF       0.068200
     45 H13          5.9600    -6.0570    -2.0370 hc         1 8UF       0.154700
     46 H14          3.4830    -6.1130    -2.4590 hc         1 8UF       0.167950
     47 H15          3.9980    -4.8250    -1.3650 hc         1 8UF       0.167950
     48 H16          4.2040    -4.3760    -0.0050 h1         1 8UF       0.022200
     49 H17          3.0380    -3.9450    -1.2600 h1         1 8UF       0.022200
     50 H18          5.9800    -5.3530     0.2700 hc         1 8UF       0.167950
     51 H19          6.6920    -6.9680     0.1880 hc         1 8UF       0.167950
     52 H20          4.8060    -4.5350     0.4930 h1         1 8UF       0.022200
     53 H21          6.2850    -4.8090     1.4190 h1         1 8UF       0.022200
     54 H22          6.5270    -3.0340     1.2440 ha         1 8UF       0.197000
     55 H23          4.8580     1.6640     1.5840 hc         1 8UF       0.072700
     56 H24          4.3390     1.0820     3.1790 hc         1 8UF       0.072700
     57 H25          2.5070     3.2170     2.5080 hc         1 8UF       0.043867
     58 H26          1.0280     2.4100     1.9680 hc         1 8UF       0.043867
     59 H27          1.9230     1.7800     3.3580 hc         1 8UF       0.043867
     60 H28          0.2860    -1.0050     5.3300 hn         1 8UF       0.356700
     61 C15          3.0590     2.0610     0.1090 c3         1 8UF      -0.082600
     62 H73         -0.1880     0.6500    -1.8290 hn         1 8UF       0.473133
@<TRIPOS>BOND
     1    16    15 1   
     2    15    14 1   
     3    15    17 1   
     4    31     8 1   
     5    31    32 1   
     6    17    18 1   
     7     9     8 1   
     8    21    18 1   
     9    21    22 1   
    10     8     4 2   
    11    32     5 2   
    12    18    19 1   
    13    22    23 1   
    14     5     4 1   
    15     5    33 1   
    16     4     3 1   
    17    19    20 1   
    18    23    24 1   
    19    23    20 1   
    20    61    28 1   
    21    13    24 ar  
    22    13    10 ar  
    23    24    25 ar  
    24    33     1 1   
    25    10     3 1   
    26    10    11 ar  
    27     3    28 1   
    28     3     2 1   
    29    25    12 ar  
    30    28    29 1   
    31    28    27 1   
    32    11    12 ar  
    33    11    27 1   
    34    12    26 1   
    35     1     2 2   
    36     1     6 1   
    37     2     7 1   
    38     7    30 3   
    39     6    34 1   
    40     6    35 1   
    41     9    36 1   
    42     9    37 1   
    43     9    38 1   
    44    61    39 1   
    45    61    40 1   
    46    61    41 1   
    47    13    42 1   
    48    17    43 1   
    49    17    44 1   
    50    18    45 1   
    51    19    46 1   
    52    19    47 1   
    53    20    48 1   
    54    20    49 1   
    55    21    50 1   
    56    21    51 1   
    57    22    52 1   
    58    22    53 1   
    59    25    54 1   
    60    27    55 1   
    61    27    56 1   
    62    29    57 1   
    63    29    58 1   
    64    29    59 1   
    65    31    60 1   
    66    62     6 1   
@<TRIPOS>SUBSTRUCTURE
     1 8UF         1 TEMP              0 ****  ****    0 ROOT
