@<TRIPOS>MOLECULE
molecule
   28    29     1     0     0
SMALL
bcc


@<TRIPOS>ATOM
      1 N1           0.0000     0.0000     0.0000 na         1 8UG      -0.051600
      2 C4           3.1210    -0.4180     3.2930 c3         1 8UG      -0.117700
      3 C5           2.0870     0.4330     4.0340 c3         1 8UG      -0.067400
      4 C6           0.6740     0.0150     3.6090 c3         1 8UG      -0.097700
      5 C7           0.6170     0.0060     2.1010 cc         1 8UG       0.338600
      6 C8           1.7590     0.0000     1.2830 cc         1 8UG      -0.314600
      7 C10          1.3520     0.0000     0.0000 cd         1 8UG      -0.104300
      8 C1           7.9140    -1.4360     3.3890 c3         1 8UG      -0.095100
      9 C2           6.8220    -0.6140     4.0760 c3         1 8UG       0.145400
     10 C3           4.4790    -0.2120     3.9150 c          1 8UG       0.633100
     11 C9           3.1700    -0.0050     1.8160 c3         1 8UG       0.013900
     12 N2          -0.4330     0.0070     1.3340 nd         1 8UG      -0.502800
     13 O2           4.6050     0.5380     4.8550 o          1 8UG      -0.551000
     14 H1          -0.5880     0.0030    -0.8100 hn         1 8UG       0.329700
     15 H2           2.8420    -1.4620     3.3640 hc         1 8UG       0.080700
     16 H3           2.1910     0.2410     5.0950 hc         1 8UG       0.065700
     17 H4           2.2330     1.4670     3.7450 hc         1 8UG       0.065700
     18 H5          -0.0260     0.7570     3.9730 hc         1 8UG       0.065700
     19 H6           0.4950    -0.9940     3.9630 hc         1 8UG       0.065700
     20 H7           1.9920    -0.0040    -0.8740 h4         1 8UG       0.170000
     21 H8           8.0090    -1.1190     2.3570 hc         1 8UG       0.047033
     22 H9           8.8560    -1.2840     3.9010 hc         1 8UG       0.047033
     23 H10          7.6500    -2.4860     3.4210 hc         1 8UG       0.047033
     24 H11          7.0650     0.4400     4.0060 h1         1 8UG       0.048700
     25 H12          6.7380    -0.8960     5.1190 h1         1 8UG       0.048700
     26 H13          3.7380    -0.7500     1.2720 hc         1 8UG       0.059700
     27 H14          3.5620     1.0030     1.7560 hc         1 8UG       0.059700
     28 O1           5.5470    -0.8610     3.4270 os         1 8UG      -0.432900
@<TRIPOS>BOND
     1     9     8 1   
     2     9    28 1   
     3    28    10 1   
     4    10    13 2   
     5    10     2 1   
     6     2     3 1   
     7     2    11 1   
     8     3     4 1   
     9    11     6 1   
    10     4     5 1   
    11     6     5 1   
    12     6     7 2   
    13     5    12 2   
    14     7     1 1   
    15    12     1 1   
    16     1    14 1   
    17     2    15 1   
    18     3    16 1   
    19     3    17 1   
    20     4    18 1   
    21     4    19 1   
    22     7    20 1   
    23     8    21 1   
    24     8    22 1   
    25     8    23 1   
    26     9    24 1   
    27     9    25 1   
    28    11    26 1   
    29    11    27 1   
@<TRIPOS>SUBSTRUCTURE
     1 8UG         1 TEMP              0 ****  ****    0 ROOT
