@<TRIPOS>MOLECULE
molecule
   58    61     1     0     0
SMALL
bcc


@<TRIPOS>ATOM
      1 C2           0.0000     0.0000     0.0000 c2         1 8UL       0.110100
      2 C3           1.3500     0.0000     0.0000 ce         1 8UL       0.005100
      3 C4           2.1720     0.0000     1.2640 c3         1 8UL       0.203800
      4 C5           1.2540     0.3030     2.4200 cd         1 8UL      -0.325600
      5 C6          -0.1510     0.2900     2.2910 cd         1 8UL       0.540600
      6 C10          1.5520     0.6170     3.6910 cc         1 8UL       0.050400
      7 C14          3.2590     1.0730     1.1710 c3         1 8UL      -0.575700
      8 C15          4.1510     0.7920    -0.0400 c3         1 8UL      -0.045100
      9 C17          4.1650    -1.4500     1.6950 ca         1 8UL      -0.200000
     10 C18          4.7530    -2.6910     1.8740 ca         1 8UL       0.134900
     11 C19          2.6160    -3.7410     1.5680 ca         1 8UL       0.207600
     12 N23          1.8340    -4.8960     1.5030 nh         1 8UL      -0.556000
     13 C24          1.1090    -4.9700     0.2290 c3         1 8UL      -0.321200
     14 C25          0.1540    -6.1660     0.2520 c3         1 8UL      -0.000900
     15 O32          0.5040    -9.8610     0.7580 o          1 8UL      -0.808300
     16 C29          0.0190    -8.6250     0.5620 c          1 8UL       0.896600
     17 O31         -1.1730    -8.4550     0.4520 o          1 8UL      -0.808300
     18 C26          0.9580    -7.4500     0.4780 c3         1 8UL      -0.333700
     19 C27          1.7430    -7.3280     1.7880 c3         1 8UL      -0.000900
     20 C28          2.6500    -6.0980     1.7200 c3         1 8UL      -0.321200
     21 C30          3.9810    -3.8380     1.8110 ca         1 8UL      -0.211000
     22 F21          6.0790    -2.7830     2.1100 f          1 8UL      -0.144900
     23 C20          2.0300    -2.4940     1.4000 ca         1 8UL      -0.194000
     24 C16          2.8070    -1.3520     1.4580 ca         1 8UL      -0.044300
     25 C22          2.6080     2.4480     1.0170 c3         1 8UL      -0.045100
     26 C8           2.0320    -0.0020    -1.2590 cg         1 8UL       0.137500
     27 N9           2.5600    -0.0160    -2.2650 n1         1 8UL      -0.296800
     28 N7          -0.6390    -0.0060    -1.2150 nz         1 8UL      -0.674400
     29 C13          2.9370     0.7450     4.2730 c3         1 8UL      -0.024800
     30 N11          0.3880     0.7970     4.3530 na         1 8UL      -0.031600
     31 N12         -0.6660     0.5850     3.4490 nc         1 8UL      -0.484800
     32 O1          -0.7640    -0.0010     1.1100 os         1 8UL      -0.300400
     33 H1           3.5990     1.5000     0.2350 hc         1 8UL       0.372700
     34 H2           3.7890     1.7470    -0.4000 hc         1 8UL       0.061033
     35 H3           5.0690     1.0380     0.4800 hc         1 8UL       0.061033
     36 H4           3.7640     0.0010    -0.6720 hc         1 8UL       0.061033
     37 H5           4.8590    -0.6290     1.8300 ha         1 8UL       0.150000
     38 H6           1.7940    -4.9780    -0.6110 h1         1 8UL       0.160200
     39 H7           0.4930    -5.8160    -0.0530 h1         1 8UL       0.160200
     40 H8          -0.1760    -5.9120     1.2520 hc         1 8UL       0.133450
     41 H9          -0.3680    -6.0040    -0.6830 hc         1 8UL       0.133450
     42 H11          1.6500    -7.5920    -0.3440 hc         1 8UL       0.075700
     43 H12          2.5100    -7.9490     2.2340 hc         1 8UL       0.133450
     44 H13          1.1640    -7.0360     2.6560 hc         1 8UL       0.133450
     45 H14          3.5390    -5.7380     1.2160 h1         1 8UL       0.160200
     46 H15          1.8860    -6.8490     1.5610 h1         1 8UL       0.160200
     47 H16          4.5070    -4.7840     1.7830 ha         1 8UL       0.171000
     48 H17          0.9640    -2.6710     1.4810 ha         1 8UL       0.172000
     49 H18          3.2350     2.8180     0.2140 hc         1 8UL       0.061033
     50 H19          2.9070     3.1610     1.7760 hc         1 8UL       0.061033
     51 H20          1.5510     2.5230     0.7920 hc         1 8UL       0.061033
     52 H21         -1.6210     0.1250    -1.0710 hn         1 8UL       0.481467
     53 H22         -0.1500     0.5630    -1.8780 hn         1 8UL       0.481467
     54 H23          3.7620     1.3380     3.8980 hc         1 8UL       0.063367
     55 H24          2.8680     1.1450     5.2780 hc         1 8UL       0.063367
     56 H25          3.0860    -0.2700     4.6210 hc         1 8UL       0.063367
     57 H26          0.2010     1.1980     5.2510 hn         1 8UL       0.349700
     58 H73         -0.4620    -0.9690    -1.4220 hn         1 8UL       0.481467
@<TRIPOS>BOND
     1    17    16 1
     2    16    15 1
     3    16    18 1
     4    14    18 1
     5    14    13 1
     6    18    19 1
     7    30    31 1
     8    30     6 1
     9    13    12 1
    10    31     5 2
    11    29     6 1
    12     6     4 2
    13    19    20 1
    14     5     4 1
    15     5    32 1
    16    12    20 1
    17    12    11 1
    18     4     3 1
    19    32     1 1
    20    23    11 ar
    21    23    24 ar
    22    11    21 ar
    23     3    24 1
    24     3     7 1
    25     3     2 1
    26     8     7 1
    27    24     9 ar
    28    21    10 ar
    29    25     7 1
    30     1     2 2
    31     1    28 1
    32     2    26 1
    33     9    10 ar
    34    10    22 1
    35    26    27 3
    36     7    33 1
    37     8    34 1
    38     8    35 1
    39     8    36 1
    40     9    37 1
    41    13    38 1
    42    13    39 1
    43    14    40 1
    44    14    41 1
    45    18    42 1
    46    19    43 1
    47    19    44 1
    48    20    45 1
    49    20    46 1
    50    21    47 1
    51    23    48 1
    52    25    49 1
    53    25    50 1
    54    25    51 1
    55    28    52 1
    56    28    53 1
    57    29    54 1
    58    29    55 1
    59    29    56 1
    60    30    57 1
    61    58    28 1
@<TRIPOS>SUBSTRUCTURE
     1 8UL         1 TEMP              0 ****  ****    0 ROOT
