@<TRIPOS>MOLECULE
8UL
   58    62     1     0     0
SMALL
bcc


@<TRIPOS>ATOM
      1 C2           0.0000     0.0000     0.0000 c2         1 8UL      -0.242000
      2 C3           1.3500     0.0000     0.0000 c2         1 8UL       0.045000
      3 C4           2.1720     0.0000     1.2640 c3         1 8UL       0.214000
      4 C5           1.2540     0.3030     2.4200 c2         1 8UL      -0.275000
      5 C6          -0.1510     0.2900     2.2910 c2         1 8UL       0.055000
      6 C10          1.5520     0.6170     3.6910 c2         1 8UL      -0.090000
      7 C14          3.2590     1.0730     1.1710 c3         1 8UL      -0.623000
      8 C15          4.1510     0.7920    -0.0400 DU         1 8UL       0.002000
      9 C17          4.1650    -1.4500     1.6950 ca         1 8UL      -0.183000
     10 C18          4.7530    -2.6910     1.8740 ca         1 8UL       0.080000
     11 C19          2.6160    -3.7410     1.5680 ca         1 8UL       0.040000
     12 N23          1.8340    -4.8960     1.5030 nh         1 8UL       0.114000
     13 C24          1.1090    -4.9700     0.2290 c3         1 8UL      -0.625000
     14 C25          0.1540    -6.1660     0.2520 c3         1 8UL       0.117000
     15 O32          0.5040    -9.8610     0.7580 o          1 8UL      -0.591000
     16 C29          0.0190    -8.6250     0.5620 c2         1 8UL       0.405000
     17 O31         -1.1730    -8.4550     0.4520 o          1 8UL      -0.591000
     18 C26          0.9580    -7.4500     0.4780 c3         1 8UL      -0.330000
     19 C27          1.7430    -7.3280     1.7880 c3         1 8UL       0.117000
     20 C28          2.6500    -6.0980     1.7200 c3         1 8UL      -0.625000
     21 C30          3.9810    -3.8380     1.8110 ca         1 8UL      -0.187000
     22 F21          6.0790    -2.7830     2.1100 f          1 8UL      -0.096000
     23 C20          2.0300    -2.4940     1.4000 ca         1 8UL      -0.185000
     24 C16          2.8070    -1.3520     1.4580 ca         1 8UL      -0.041000
     25 C22          2.6080     2.4480     1.0170 c3         1 8UL      -0.070000
     26 C8           2.0320    -0.0020    -1.2590 c1         1 8UL      -0.183000
     27 N9           2.5600    -0.0160    -2.2650 n1         1 8UL       0.046000
     28 N7          -0.6390    -0.0060    -1.2150 nz         1 8UL       0.945000
     29 C13          2.9370     0.7450     4.2730 c3         1 8UL      -0.031000
     30 N11          0.3880     0.7970     4.3530 na         1 8UL       0.315000
     31 N12         -0.6660     0.5850     3.4490 n2         1 8UL      -0.200000
     32 O1          -0.7640    -0.0010     1.1100 os         1 8UL      -0.044000
     33 H1           3.5990     1.5000     0.2350 DU         1 8UL       0.351000
     34 H2           3.7890     1.7470    -0.4000 ha         1 8UL       0.086000
     35 H3           5.0690     1.0380     0.4800 ha         1 8UL       0.086000
     36 H4           3.7640     0.0010    -0.6720 ha         1 8UL       0.086000
     37 H5           4.8590    -0.6290     1.8300 ha         1 8UL       0.142000
     38 H6           1.7940    -4.9780    -0.6110 h1         1 8UL       0.140750
     39 H7           0.4930    -5.8160    -0.0530 h1         1 8UL       0.140750
     40 H8          -0.1760    -5.9120     1.2520 hc         1 8UL       0.125000
     41 H9          -0.3680    -6.0040    -0.6830 hc         1 8UL       0.125000
     42 H11          1.6500    -7.5920    -0.3440 hc         1 8UL       0.091000
     43 H12          2.5100    -7.9490     2.2340 hc         1 8UL       0.125000
     44 H13          1.1640    -7.0360     2.6560 hc         1 8UL       0.125000
     45 H14          3.5390    -5.7380     1.2160 h1         1 8UL       0.140750
     46 H15          1.8860    -6.8490     1.5610 h1         1 8UL       0.140750
     47 H16          4.5070    -4.7840     1.7830 ha         1 8UL       0.157000
     48 H17          0.9640    -2.6710     1.4810 ha         1 8UL       0.154000
     49 H18          3.2350     2.8180     0.2140 hc         1 8UL       0.038000
     50 H19          2.9070     3.1610     1.7760 hc         1 8UL       0.038000
     51 H20          1.5510     2.5230     0.7920 hc         1 8UL       0.038000
     52 H21         -1.6210     0.1250    -1.0710 hn         1 8UL       0.028333
     53 H22         -0.1500     0.5630    -1.8780 hn         1 8UL       0.028333
     54 H23          3.7620     1.3380     3.8980 hc         1 8UL       0.061000
     55 H24          2.8680     1.1450     5.2780 hc         1 8UL       0.061000
     56 H25          3.0860    -0.2700     4.6210 hc         1 8UL       0.061000
     57 H26          0.2010     1.1980     5.2510 hn         1 8UL       0.115000
     58 H73         -0.4620    -0.9690    -1.4220 hn         1 8UL       0.028333
@<TRIPOS>BOND
     1     1     2 1   
     2     1    28 1   
     3     1    32 1   
     4     2     3 1   
     5     2    26 1   
     6     3     4 1   
     7     3     7 1   
     8     3    24 1   
     9     4     5 1   
    10     4     6 1   
    11     5    31 1   
    12     5    32 1   
    13     6    29 1   
    14     6    30 1   
    15     7     8 1   
    16     7    25 1   
    17     7    33 1   
    18     8    33 1   
    19     8    34 1   
    20     8    35 1   
    21     8    36 1   
    22     9    10 1   
    23     9    24 1   
    24     9    37 1   
    25    10    21 1   
    26    10    22 1   
    27    11    12 1   
    28    11    21 1   
    29    11    23 1   
    30    12    13 1   
    31    12    20 1   
    32    13    14 1   
    33    13    38 1   
    34    13    39 1   
    35    14    18 1   
    36    14    40 1   
    37    14    41 1   
    38    15    16 1   
    39    16    17 1   
    40    16    18 1   
    41    18    19 1   
    42    18    42 1   
    43    19    20 1   
    44    19    43 1   
    45    19    44 1   
    46    20    45 1   
    47    20    46 1   
    48    21    47 1   
    49    23    24 1   
    50    23    48 1   
    51    25    49 1   
    52    25    50 1   
    53    25    51 1   
    54    26    27 1   
    55    28    52 1   
    56    28    53 1   
    57    28    58 1   
    58    29    54 1   
    59    29    55 1   
    60    29    56 1   
    61    30    31 1   
    62    30    57 1   
@<TRIPOS>SUBSTRUCTURE
     1 8UL         1 TEMP              0 ****  ****    0 ROOT
