@<TRIPOS>MOLECULE
8UM
   51    54     1     0     0
SMALL
bcc


@<TRIPOS>ATOM
      1 C7           0.0000     0.0000     0.0000 ca         1 8UM       0.010600
      2 C6           1.3510    -0.0010     2.4300 ca         1 8UM       0.001200
      3 C1          -0.6470    -4.7010    -1.7620 cc         1 8UM      -0.171000
      4 C5           2.0700     0.0000     1.2130 ca         1 8UM      -0.145600
      5 C4          -0.0440     0.0040     2.4110 ca         1 8UM      -0.126000
      6 C3           1.3830     0.0000     0.0000 ca         1 8UM      -0.076000
      7 C2          -0.9530    -3.4300    -2.2020 cc         1 8UM       0.021000
      8 C8          -0.7100     0.0050     1.2040 ca         1 8UM       0.098900
      9 C9           0.5900    -4.8300    -1.2310 cd         1 8UM       0.122100
     10 C10          0.0170    -2.5250    -2.0420 cd         1 8UM      -0.065600
     11 C11          2.1060    -0.0020     3.6850 cc         1 8UM      -0.172200
     12 C12          3.4480    -0.0130     3.6470 cd         1 8UM      -0.141400
     13 C13          1.3760    -7.1080    -1.5010 c2         1 8UM      -0.122400
     14 C14          3.5360    -0.0060     1.2720 c          1 8UM       0.605100
     15 C15          1.1560    -6.0730    -0.6890 cf         1 8UM      -0.138400
     16 C16          2.5310    -8.3290     0.1760 c          1 8UM       0.609500
     17 C17          1.4800    -6.1660     0.7790 c3         1 8UM       0.047800
     18 C18          2.7020    -7.0640     0.9800 c3         1 8UM      -0.135000
     19 C19          2.8400    -7.4160     2.4610 c3         1 8UM       0.009900
     20 C21          3.9590    -6.3290     0.5090 c3         1 8UM      -0.018400
     21 N22          4.1470    -0.0120     2.4730 ns         1 8UM       0.032900
     22 N23          1.9310    -8.2870    -1.0280 ns         1 8UM      -0.021100
     23 N24         -0.6940     0.0010    -1.2140 nu         1 8UM      -0.380500
     24 O25          4.1940    -0.0060     0.2470 o          1 8UM      -0.661500
     25 O26          2.9330    -9.3860     0.6160 o          1 8UM      -0.655500
     26 F29         -2.0600     0.0100     1.1850 f          1 8UM      -0.125900
     27 S30          1.4170    -3.2790    -1.2920 ss         1 8UM      -0.170800
     28 S31         -0.0920    -0.8310    -2.5120 sy         1 8UM       1.062200
     29 H1          -1.3430    -5.5280    -1.8330 ha         1 8UM       0.130000
     30 H2          -0.6020     0.0080     3.3400 ha         1 8UM       0.125000
     31 H3           1.9290    -0.0040    -0.9360 ha         1 8UM       0.199000
     32 H4          -1.9090    -3.1850    -2.6480 ha         1 8UM       0.131000
     33 H5           1.5870    -0.0030     4.6350 ha         1 8UM       0.123000
     34 H6           3.9970    -0.0180     4.5810 h4         1 8UM       0.120000
     35 H7           1.1170    -7.0260    -2.5500 h4         1 8UM       0.127000
     36 H8           0.6340    -6.5870     1.3080 hc         1 8UM       0.033200
     37 H9           1.6960    -5.1760     1.1630 hc         1 8UM       0.033200
     38 H10          1.8880    -7.7660     2.8400 hc         1 8UM       0.016700
     39 H11          3.1470    -6.5360     3.0140 hc         1 8UM       0.016700
     40 H12          3.5840    -8.1950     2.5800 hc         1 8UM       0.016700
     41 H13          5.0220    -8.1710     0.2030 hc         1 8UM       0.011700
     42 H14          5.3300    -7.4050     1.7670 hc         1 8UM       0.011700
     43 H15          6.0580    -6.7400     0.2980 hc         1 8UM       0.011700
     44 H16          3.8600    -6.0810    -0.5410 hc         1 8UM       0.021700
     45 H17          4.0810    -5.4190     1.0850 hc         1 8UM       0.021700
     46 H18          5.1470    -0.0200     2.5060 hn         1 8UM       0.171500
     47 H19          1.8840    -9.1150    -1.5870 hn         1 8UM       0.178500
     48 H20         -1.5320     0.5400    -1.3100 hn         1 8UM       0.353800
     49 C20          5.1810    -7.2270     0.7090 c3         1 8UM      -0.013100
     50 O27          1.2440    -0.3790    -2.6940 o          1 8UM      -0.568800
     51 O28         -1.0810    -0.7590    -3.5300 o          1 8UM      -0.568800
@<TRIPOS>BOND
     1     1     6 ar  
     2     1     8 ar  
     3     1    23 1   
     4     2     4 ar  
     5     2     5 ar  
     6     2    11 1   
     7     3     7 1   
     8     3     9 2   
     9     3    29 1   
    10     4     6 ar  
    11     4    14 1   
    12     5     8 ar  
    13     5    30 1   
    14     6    31 1   
    15     7    10 2   
    16     7    32 1   
    17     8    26 1   
    18     9    15 1   
    19     9    27 1   
    20    10    27 1   
    21    10    28 1   
    22    11    12 2   
    23    11    33 1   
    24    12    21 1   
    25    12    34 1   
    26    13    15 2   
    27    13    22 1   
    28    13    35 1   
    29    14    21 1   
    30    14    24 2   
    31    15    17 1   
    32    16    18 1   
    33    16    22 1   
    34    16    25 2   
    35    17    18 1   
    36    17    36 1   
    37    17    37 1   
    38    18    19 1   
    39    18    20 1   
    40    19    38 1   
    41    19    39 1   
    42    19    40 1   
    43    20    44 1   
    44    20    45 1   
    45    20    49 1   
    46    21    46 1   
    47    22    47 1   
    48    23    28 1   
    49    23    48 1   
    50    28    50 2   
    51    28    51 2   
    52    41    49 1   
    53    42    49 1   
    54    43    49 1   
@<TRIPOS>SUBSTRUCTURE
     1 8UM         1 TEMP              0 ****  ****    0 ROOT
