@<TRIPOS>MOLECULE
8UN
   65    70     1     0     0
SMALL
bcc


@<TRIPOS>ATOM
      1 C1           0.0000     0.0000     0.0000 ca         1 8UN      -0.058000
      2 C2           1.3650     0.0000     0.0000 ca         1 8UN      -0.131000
      3 C3           2.0640     0.0000     1.2020 ca         1 8UN      -0.271200
      4 C4           1.3660    -0.0000     2.4250 ca         1 8UN       0.066400
      5 C5          -0.0290     0.0010     2.4210 ca         1 8UN       0.040000
      6 C6          -0.7110     0.0010     1.2060 ca         1 8UN      -0.197600
      7 C12         -4.2380     0.1310     0.0010 ca         1 8UN      -0.092400
      8 C13         -4.8790     0.9090     0.9600 ca         1 8UN      -0.094000
      9 C14         -6.2500     1.0330     0.9440 ca         1 8UN      -0.045500
     10 C15         -6.9980     0.3770    -0.0380 ca         1 8UN      -0.037000
     11 C16         -6.3510    -0.4020    -1.0000 ca         1 8UN      -0.045500
     12 C17         -4.9790    -0.5230    -0.9780 ca         1 8UN      -0.094000
     13 C25          6.5790    -1.2360    -0.1270 c3         1 8UN       0.001100
     14 C26          5.3070    -1.3090     0.7200 c3         1 8UN      -0.189700
     15 C27          4.4420    -2.4770     0.2400 c3         1 8UN       0.001100
     16 C29          6.4970    -3.7090    -0.4670 c3         1 8UN      -0.074400
     17 C30         -8.4250     0.5040    -0.0590 cg         1 8UN       0.235800
     18 N1           2.2920    -0.0010     3.4160 nc         1 8UN      -0.491100
     19 C7           3.4940    -0.0020     2.8910 cd         1 8UN       0.288400
     20 N2           3.4050    -0.0020     1.5240 na         1 8UN       0.327700
     21 C8           4.7560    -0.0030     3.6600 ca         1 8UN      -0.077900
     22 C9           4.5240    -0.0030     0.5800 c3         1 8UN      -0.040000
     23 C10          5.4470     1.1790     0.8820 c3         1 8UN      -0.094100
     24 C11         -2.1870     0.0060     1.1920 c          1 8UN       0.596700
     25 N3          -2.8490     0.0120     0.0180 ns         1 8UN      -0.037100
     26 O1          -2.8060     0.0060     2.2390 o          1 8UN      -0.626100
     27 C18          5.9820    -0.0370     2.9920 ca         1 8UN      -0.228000
     28 C19          7.1600    -0.0380     3.7130 ca         1 8UN       0.064100
     29 C20          7.1240    -0.0060     5.1080 ca         1 8UN       0.074100
     30 C21          5.9060     0.0270     5.7710 ca         1 8UN      -0.074000
     31 C22          4.7260     0.0360     5.0550 ca         1 8UN       0.042100
     32 O2           8.4060    -0.0200     5.5760 os         1 8UN      -0.298900
     33 C23          9.2290     0.3590     4.4580 c3         1 8UN       0.427200
     34 O3           8.4660    -0.0660     3.3120 os         1 8UN      -0.317900
     35 Br1          3.0690     0.0800     5.9650 br         1 8UN      -0.048100
     36 C24          7.3620    -2.5430     0.0120 c3         1 8UN      -0.022400
     37 C28          5.2250    -3.7830     0.3800 c3         1 8UN      -0.022400
     38 N4          -9.5540     0.6170    -0.0900 n1         1 8UN      -0.385800
     39 H1          -0.2540    -0.1170    -1.0460 ha         1 8UN       0.111000
     40 H2           2.1840     0.3470    -0.6180 ha         1 8UN       0.119000
     41 H3          -0.7970     0.0090     3.1850 ha         1 8UN       0.148000
     42 H4          -4.2850     1.6500     1.4810 ha         1 8UN       0.118500
     43 H5          -6.8980     1.5070     1.6720 ha         1 8UN       0.119000
     44 H6          -7.1960    -0.8350    -1.5220 ha         1 8UN       0.119000
     45 H7          -4.2550    -1.0620    -1.5770 ha         1 8UN       0.118500
     46 H8           6.2020    -0.9380    -1.0980 hc         1 8UN       0.030950
     47 H9           6.9280    -0.3950     0.4600 hc         1 8UN       0.030950
     48 H10          5.5760    -1.4650     1.7580 hc         1 8UN       0.097700
     49 H11          3.6670    -2.3820     0.9920 hc         1 8UN       0.030950
     50 H12          4.0550    -2.1360    -0.7130 hc         1 8UN       0.030950
     51 H13          6.3500    -3.3780    -1.4880 hc         1 8UN       0.017200
     52 H14          7.1980    -4.5350    -0.4740 hc         1 8UN       0.017200
     53 H15          4.1450     0.0850    -0.4310 h1         1 8UN       0.053700
     54 H16          6.4850     0.8700     0.8740 hc         1 8UN       0.041367
     55 H17          5.4950     2.0480     0.2370 hc         1 8UN       0.041367
     56 H18          5.2280     1.4770     1.9010 hc         1 8UN       0.041367
     57 H19         -2.3850    -0.1450    -0.8550 hn         1 8UN       0.174500
     58 H20          5.9930    -0.5060     2.0150 ha         1 8UN       0.218000
     59 H21          5.8120    -0.1320     6.8380 ha         1 8UN       0.129000
     60 H22          9.5080     1.4060     4.4830 h2         1 8UN       0.017200
     61 H23         10.0970    -0.2580     4.2580 h2         1 8UN       0.017200
     62 H24          8.2770    -2.5030    -0.5670 hc         1 8UN       0.021700
     63 H25          7.8260    -3.1440     0.7850 hc         1 8UN       0.021700
     64 H26          5.6530    -4.1330     1.3120 hc         1 8UN       0.021700
     65 H27          4.7580    -4.6460    -0.0790 hc         1 8UN       0.021700
@<TRIPOS>BOND
     1     1     2 ar  
     2     1     6 ar  
     3     1    39 1   
     4     2     3 ar  
     5     2    40 1   
     6     3     4 ar  
     7     3    20 1   
     8     4     5 ar  
     9     4    18 1   
    10     5     6 ar  
    11     5    41 1   
    12     6    24 1   
    13     7     8 ar  
    14     7    12 ar  
    15     7    25 1   
    16     8     9 ar  
    17     8    42 1   
    18     9    10 ar  
    19     9    43 1   
    20    10    11 ar  
    21    10    17 1   
    22    11    12 ar  
    23    11    44 1   
    24    12    45 1   
    25    13    14 1   
    26    13    36 1   
    27    13    46 1   
    28    13    47 1   
    29    14    15 1   
    30    14    22 1   
    31    14    48 1   
    32    15    37 1   
    33    15    49 1   
    34    15    50 1   
    35    16    36 1   
    36    16    37 1   
    37    16    51 1   
    38    16    52 1   
    39    17    38 3   
    40    18    19 2   
    41    19    20 1   
    42    19    21 1   
    43    20    22 1   
    44    21    27 ar  
    45    21    31 ar  
    46    22    23 1   
    47    22    53 1   
    48    23    54 1   
    49    23    55 1   
    50    23    56 1   
    51    24    25 1   
    52    24    26 2   
    53    25    57 1   
    54    27    28 ar  
    55    27    58 1   
    56    28    29 ar  
    57    28    34 1   
    58    29    30 ar  
    59    29    32 1   
    60    30    31 ar  
    61    30    59 1   
    62    31    35 1   
    63    32    33 1   
    64    33    34 1   
    65    33    60 1   
    66    33    61 1   
    67    36    62 1   
    68    36    63 1   
    69    37    64 1   
    70    37    65 1   
@<TRIPOS>SUBSTRUCTURE
     1 8UN         1 TEMP              0 ****  ****    0 ROOT
