@<TRIPOS>MOLECULE
molecule
   61    64     1     0     0
SMALL
bcc


@<TRIPOS>ATOM
      1 C4           0.0000     0.0000     0.0000 c3         1 8UO       0.187800
      2 C14         -0.5170     1.3720    -0.4370 c3         1 8UO      -0.390700
      3 C5           1.5070     0.0000     0.0000 cc         1 8UO      -0.347600
      4 C6           2.2610     0.0000     1.1940 cd         1 8UO       0.532600
      5 C8          -1.8520    -0.6110     1.6070 cg         1 8UO       0.132500
      6 C15         -2.0420     1.4030    -0.3230 c3         1 8UO      -0.128600
      7 C16         -0.5090    -1.0600    -0.9420 ca         1 8UO       0.027700
      8 C20         -0.2870    -2.3950    -0.6620 ca         1 8UO      -0.215000
      9 C19         -0.7570    -3.3730    -1.5310 ca         1 8UO       0.137600
     10 C18         -1.6660    -1.6680    -2.9530 ca         1 8UO       0.169900
     11 N11          3.6180     0.0030    -0.5270 na         1 8UO      -0.019600
     12 C2           0.3510    -0.2790     2.4730 c2         1 8UO       0.171100
     13 N7          -0.1940    -0.5620     3.7000 nz         1 8UO      -0.784400
     14 C3          -0.4700    -0.2970     1.4030 ce         1 8UO      -0.021900
     15 O1           1.6710    -0.0050     2.4200 os         1 8UO      -0.292400
     16 C10          2.3630     0.0010    -1.0330 cd         1 8UO       0.016400
     17 O33         -1.9240    -9.3670    -2.1080 o          1 8UO      -0.818800
     18 C31         -0.8010    -9.7420    -1.4830 c          1 8UO       0.843600
     19 O32          0.0590    -9.8430    -2.2320 o          1 8UO      -0.818800
     20 C29         -0.8080    -8.8940    -0.3590 c3         1 8UO      -0.132400
     21 C26         -1.2440    -7.4570    -0.6530 c3         1 8UO      -0.008700
     22 C25         -0.6660    -6.5190     0.4100 c3         1 8UO      -0.307900
     23 C24         -1.0540    -5.0770     0.0770 c3         1 8UO       0.301800
     24 C27         -0.7240    -7.0370    -2.0310 c3         1 8UO      -0.307900
     25 C28         -1.1110    -5.5800    -2.2930 c3         1 8UO       0.301800
     26 N23         -0.5330    -4.7230    -1.2490 nh         1 8UO      -0.835000
     27 C30         -1.4470    -3.0060    -2.6770 ca         1 8UO      -0.276000
     28 F21         -2.3380    -1.3080    -4.0680 f          1 8UO      -0.124900
     29 C17         -1.2020    -0.6960    -2.0810 ca         1 8UO      -0.303000
     30 C22          0.0850     2.4550     0.4600 c3         1 8UO      -0.128600
     31 N9          -2.9450    -0.8590     1.7890 n1         1 8UO      -0.267800
     32 N12          3.5220     0.0020     0.8740 nc         1 8UO      -0.474800
     33 H1          -0.7380     2.2480     0.1600 hc         1 8UO       0.331700
     34 H2           3.0020     0.0100    -2.8900 hc         1 8UO       0.067033
     35 H3           1.8200     0.9460    -2.9950 hc         1 8UO       0.067033
     36 H4           1.6400    -0.9890    -2.7530 hc         1 8UO       0.067033
     37 H5          -2.1920     1.0170     0.6780 hc         1 8UO       0.070200
     38 H6          -2.2510     0.6380    -1.0610 hc         1 8UO       0.070200
     39 H7          -2.1660     2.4780    -0.3770 hc         1 8UO       0.070200
     40 H8           0.4940    -2.8730    -0.0830 ha         1 8UO       0.159000
     41 H9           4.4170    -0.3930    -0.9820 hn         1 8UO       0.347700
     42 H10         -0.8750     0.0960     4.0260 hn         1 8UO       0.488800
     43 H11         -0.0470    -1.3740     4.2660 hn         1 8UO       0.488800
     44 H13          0.1750    -9.1320     0.0280 hc         1 8UO       0.033200
     45 H14         -1.6130    -9.3020     0.2410 hc         1 8UO       0.033200
     46 H15         -2.3250    -7.3920    -0.6410 hc         1 8UO       0.075700
     47 H16         -0.9550    -5.5730    -0.0300 hc         1 8UO       0.115700
     48 H17          0.3200    -6.9650     0.4610 hc         1 8UO       0.115700
     49 H18         -2.0560    -4.6670     0.1230 h1         1 8UO       0.068700
     50 H19         -0.4540    -4.4620     0.7360 h1         1 8UO       0.068700
     51 H20          0.3330    -7.0300    -2.2700 hc         1 8UO       0.115700
     52 H21         -0.7600    -5.9870    -2.2950 hc         1 8UO       0.115700
     53 H22         -0.9270    -4.8360    -3.0590 h1         1 8UO       0.068700
     54 H23         -2.1730    -5.5370    -2.0830 h1         1 8UO       0.068700
     55 H24         -1.6770    -3.8350    -3.3360 ha         1 8UO       0.181000
     56 H25         -0.7610    -0.7320    -3.0700 ha         1 8UO       0.220000
     57 H26         -0.2570     2.7000     1.4580 hc         1 8UO       0.070200
     58 H27          1.1490     2.3020     0.5970 hc         1 8UO       0.070200
     59 H28          0.3520     3.4100     0.0230 hc         1 8UO       0.070200
     60 C13          1.9940     0.0020    -2.4940 c3         1 8UO      -0.026800
     61 H73         -1.1680    -0.4160     3.5200 hn         1 8UO       0.488800
@<TRIPOS>BOND
     1    17    18 1   
     2    19    18 1   
     3    18    20 1   
     4    20    21 1   
     5    24    21 1   
     6    24    25 1   
     7    11    32 1   
     8    11    16 1   
     9    21    22 1   
    10    32     4 2   
    11    25    26 1   
    12    60    16 1   
    13    16     3 2   
    14     4     3 1   
    15     4    15 1   
    16    22    23 1   
    17    26    23 1   
    18    26     9 1   
    19     3     1 1   
    20    15    12 1   
    21     8     9 ar  
    22     8     7 ar  
    23     9    27 ar  
    24     6     2 1   
    25     1     7 1   
    26     1     2 1   
    27     1    14 1   
    28     7    29 ar  
    29    27    10 ar  
    30    12    14 2   
    31    12    13 1   
    32    30     2 1   
    33    14     5 1   
    34    29    10 ar  
    35    10    28 1   
    36     5    31 3   
    37     2    33 1   
    38    60    34 1   
    39    60    35 1   
    40    60    36 1   
    41     6    37 1   
    42     6    38 1   
    43     6    39 1   
    44     8    40 1   
    45    11    41 1   
    46    13    42 1   
    47    13    43 1   
    48    20    44 1   
    49    20    45 1   
    50    21    46 1   
    51    22    47 1   
    52    22    48 1   
    53    23    49 1   
    54    23    50 1   
    55    24    51 1   
    56    24    52 1   
    57    25    53 1   
    58    25    54 1   
    59    27    55 1   
    60    29    56 1   
    61    30    57 1   
    62    30    58 1   
    63    30    59 1   
    64    61    13 1   
@<TRIPOS>SUBSTRUCTURE
     1 8UO         1 TEMP              0 ****  ****    0 ROOT
