@<TRIPOS>MOLECULE
molecule
   38    39     1     0     0
SMALL
bcc


@<TRIPOS>ATOM
      1 Br           0.0000     0.0000     0.0000 br         1 8UP      -0.151400
      2 C14          1.9660     0.0000     0.0000 c3         1 8UP      -0.003000
      3 C13          2.4760     0.0000     1.4430 c3         1 8UP      -0.084400
      4 C12          4.0060    -0.0010     1.4430 c3         1 8UP       0.139400
      5 O2           4.4820    -0.0010     2.7900 os         1 8UP      -0.329900
      6 C11          5.8290    -0.0010     2.9680 ca         1 8UP       0.092100
      7 C2           6.5200     1.1910     3.0590 ca         1 8UP       0.145100
      8 O1           5.8460     2.3690     2.9690 os         1 8UP      -0.301900
      9 C1           6.6170     3.5680     3.0710 c3         1 8UP       0.119700
     10 C10          6.5330    -1.2180     3.0670 ca         1 8UP      -0.040000
     11 C5           7.9390    -1.1960     3.2530 ca         1 8UP      -0.039000
     12 C4           8.6070     0.0370     3.3340 ca         1 8UP      -0.088000
     13 C3           7.9040     1.2000     3.2420 ca         1 8UP      -0.160000
     14 C9           5.8660    -2.4480     2.9860 ca         1 8UP       0.008000
     15 C8           6.5900    -3.6240     3.0880 ca         1 8UP      -0.207900
     16 C15          5.8920    -4.9260     3.0020 ce         1 8UP       0.546800
     17 N2           6.6070    -6.0990     3.1030 nz         1 8UP      -0.799600
     18 N1           4.6000    -4.9620     2.8310 n2         1 8UP      -0.694100
     19 C7           7.9830    -3.5900     3.2720 ca         1 8UP      -0.170000
     20 C6           8.6460    -2.4090     3.3520 ca         1 8UP      -0.060000
     21 H14          2.3270    -0.8850    -0.5110 h1         1 8UP       0.071200
     22 H13          2.3270     0.8850    -0.5110 h1         1 8UP       0.071200
     23 H12          2.1150     0.8850     1.9540 hc         1 8UP       0.071200
     24 H11          2.1140    -0.8840     1.9540 hc         1 8UP       0.071200
     25 H9           4.3680     0.8830     0.9320 h1         1 8UP       0.033200
     26 H10          4.3670    -0.8860     0.9320 h1         1 8UP       0.033200
     27 H2           7.1220     3.5930     4.0300 h1         1 8UP       0.053033
     28 H3           7.3520     3.5940     2.2750 h1         1 8UP       0.053033
     29 H1           5.9620     4.4270     2.9860 h1         1 8UP       0.053033
     30 H5           9.6800     0.0630     3.4760 ha         1 8UP       0.152000
     31 H4           8.4270     2.1460     3.3110 ha         1 8UP       0.159000
     32 H8           4.7830    -2.4770     2.9820 ha         1 8UP       0.181000
     33 H17          7.0770    -6.1300     3.9860 hn         1 8UP       0.464133
     34 H15          5.9830    -6.8780     3.0300 hn         1 8UP       0.464133
     35 H16          4.1260    -5.8410     2.7730 hn         1 8UP       0.430400
     36 H7           8.5340    -4.5190     3.3500 ha         1 8UP       0.100000
     37 H6           9.7200    -2.3990     3.4940 ha         1 8UP       0.155000
     38 H23          7.2810    -6.1430     2.3640 hn         1 8UP       0.464133
@<TRIPOS>BOND
     1     1     2 1   
     2     2     3 1   
     3     3     4 1   
     4     5     4 1   
     5     5     6 1   
     6    18    16 2   
     7     8     9 1   
     8     8     7 1   
     9     6     7 ar  
    10     6    10 ar  
    11    14    10 ar  
    12    14    15 ar  
    13    16    17 1   
    14    16    15 1   
    15     7    13 ar  
    16    10    11 ar  
    17    15    19 ar  
    18    13    12 ar  
    19    11    12 ar  
    20    11    20 ar  
    21    19    20 ar  
    22     2    21 1   
    23     2    22 1   
    24     3    23 1   
    25     3    24 1   
    26     4    25 1   
    27     4    26 1   
    28     9    27 1   
    29     9    28 1   
    30     9    29 1   
    31    12    30 1   
    32    13    31 1   
    33    14    32 1   
    34    17    33 1   
    35    17    34 1   
    36    18    35 1   
    37    19    36 1   
    38    20    37 1   
    39    38    17 1   
@<TRIPOS>SUBSTRUCTURE
     1 8UP         1 TEMP              0 ****  ****    0 ROOT
