@<TRIPOS>MOLECULE
8UP
   38    39     1     0     0
SMALL
bcc


@<TRIPOS>ATOM
      1 Br           0.0000     0.0000     0.0000 br         1 8UP      -0.200400
      2 C14          1.9660     0.0000     0.0000 c3         1 8UP       0.144000
      3 C13          2.4760     0.0000     1.4430 c3         1 8UP      -0.049400
      4 C12          4.0060    -0.0010     1.4430 c3         1 8UP       0.211400
      5 O2           4.4820    -0.0010     2.7900 os         1 8UP      -0.313900
      6 C11          5.8290    -0.0010     2.9680 ca         1 8UP       0.080100
      7 C2           6.5200     1.1910     3.0590 ca         1 8UP       0.160100
      8 O1           5.8460     2.3690     2.9690 os         1 8UP      -0.282900
      9 C1           6.6170     3.5680     3.0710 c3         1 8UP       0.239700
     10 C10          6.5330    -1.2180     3.0670 ca         1 8UP      -0.026000
     11 C5           7.9390    -1.1960     3.2530 ca         1 8UP      -0.044000
     12 C4           8.6070     0.0370     3.3340 ca         1 8UP      -0.050000
     13 C3           7.9040     1.2000     3.2420 ca         1 8UP      -0.145000
     14 C9           5.8660    -2.4480     2.9860 ca         1 8UP      -0.010000
     15 C8           6.5900    -3.6240     3.0880 ca         1 8UP      -0.232900
     16 C15          5.8920    -4.9260     3.0020 ce         1 8UP       0.217800
     17 N2           6.6070    -6.0990     3.1030 nz         1 8UP       0.190400
     18 N1           4.6000    -4.9620     2.8310 n2         1 8UP      -0.506100
     19 C7           7.9830    -3.5900     3.2720 ca         1 8UP      -0.148000
     20 C6           8.6460    -2.4090     3.3520 ca         1 8UP      -0.011000
     21 H14          2.3270     0.8850    -0.5110 h1         1 8UP       0.028200
     22 H13          2.3270    -0.8850    -0.5110 h1         1 8UP       0.028200
     23 H12          2.1140    -0.8840     1.9540 hc         1 8UP       0.038200
     24 H11          2.1150     0.8850     1.9540 hc         1 8UP       0.038200
     25 H9           4.3680     0.8830     0.9320 h1         1 8UP      -0.003300
     26 H10          4.3670    -0.8860     0.9320 h1         1 8UP      -0.003300
     27 H2           5.9620     4.4270     2.9820 h1         1 8UP       0.007367
     28 H3           7.3540     3.5920     2.2780 h1         1 8UP       0.007367
     29 H1           7.1190     3.5950     4.0310 h1         1 8UP       0.007367
     30 H5           9.6800     0.0630     3.4760 ha         1 8UP       0.120000
     31 H4           8.4270     2.1460     3.3110 ha         1 8UP       0.137000
     32 H8           4.7830    -2.4770     2.9790 ha         1 8UP       0.123000
     33 H17          7.0770    -6.1300     3.9860 hn         1 8UP       0.221133
     34 H15          7.2820    -6.1430     2.3650 hn         1 8UP       0.221133
     35 H16          4.0790    -4.1100     2.7580 hn         1 8UP       0.382400
     36 H7           8.5340    -4.5190     3.3500 ha         1 8UP       0.082000
     37 H6           9.7200    -2.4000     3.4940 ha         1 8UP       0.122000
     38 H23          5.9820    -6.8780     3.0300 hn         1 8UP       0.221133
@<TRIPOS>BOND
     1     1     2 1   
     2     2     3 1   
     3     2    21 1   
     4     2    22 1   
     5     3     4 1   
     6     3    23 1   
     7     3    24 1   
     8     4     5 1   
     9     4    25 1   
    10     4    26 1   
    11     5     6 1   
    12     6     7 ar  
    13     6    10 ar  
    14     7     8 1   
    15     7    13 ar  
    16     8     9 1   
    17     9    27 1   
    18     9    28 1   
    19     9    29 1   
    20    10    11 ar  
    21    10    14 ar  
    22    11    12 ar  
    23    11    20 ar  
    24    12    13 ar  
    25    12    30 1   
    26    13    31 1   
    27    14    15 ar  
    28    14    32 1   
    29    15    16 1   
    30    15    19 ar  
    31    16    17 1   
    32    16    18 2   
    33    17    33 1   
    34    17    34 1   
    35    17    38 1   
    36    18    35 1   
    37    19    20 ar  
    38    19    36 1   
    39    20    37 1   
@<TRIPOS>SUBSTRUCTURE
     1 8UP         1 TEMP              0 ****  ****    0 ROOT
