@<TRIPOS>MOLECULE
8UR
   64    68     1     0     0
SMALL
bcc


@<TRIPOS>ATOM
      1 C4           0.0000     0.0000     0.0000 c3         1 8UR      -0.035000
      2 C7          -0.5120     0.0600    -1.4410 c3         1 8UR      -0.534000
      3 C6           0.0620     1.1860     2.1960 c3         1 8UR      -0.485000
      4 C8          -2.0140    -0.0640    -1.4460 c3         1 8UR       0.405000
      5 C2           2.0360     0.0000     1.4440 c3         1 8UR      -0.485000
      6 C3           1.5310     0.0000     0.0000 c3         1 8UR      -0.082500
      7 C5          -0.5030     1.2220     0.7740 c3         1 8UR      -0.082500
      8 N1           1.5300     1.1880     2.1420 nh         1 8UR       1.729000
      9 F35         -0.3050     0.8770     6.7400 f          1 8UR      -0.133000
     10 F33          0.6080     2.9000     7.2770 f          1 8UR      -0.133000
     11 F34          1.5240     0.9770     8.1030 f          1 8UR      -0.133000
     12 C28          1.7910     1.4690     5.7970 ca         1 8UR      -0.179000
     13 C27          3.1640     1.4820     5.9610 ca         1 8UR      -0.091000
     14 C36          1.2450     1.3700     4.5320 ca         1 8UR      -0.018000
     15 C29          2.0780     1.2890     3.4230 ca         1 8UR      -0.350000
     16 O10         -2.6850    -0.0360    -2.6080 o          1 8UR      -0.594000
     17 O9          -2.6140    -0.1870    -0.4040 o          1 8UR      -0.594000
     18 C30          3.4570     1.3070     3.5900 ca         1 8UR      -0.143000
     19 C26          3.9960     1.4010     4.8580 ca         1 8UR      -0.107000
     20 C14          5.4910     1.4210     5.0410 c3         1 8UR       0.143000
     21 C24          5.8290     1.3830     6.5330 c3         1 8UR      -0.250000
     22 C32          5.3580     0.0540     7.1290 c3         1 8UR      -0.028500
     23 C25          7.3420     1.5140     6.7160 c3         1 8UR      -0.028500
     24 C13          6.1040     0.2310     4.3480 c2         1 8UR       0.036000
     25 C18          5.5300    -1.0610     4.5740 c1         1 8UR      -0.218000
     26 N19          5.0630    -2.0780     4.7670 n1         1 8UR       0.080000
     27 C12          7.1700     0.3260     3.5260 c2         1 8UR      -0.296000
     28 N17          7.6430    -0.8300     2.9570 nz         1 8UR       1.000000
     29 C15          6.0620     2.6710     4.4230 c2         1 8UR      -0.282000
     30 C20          5.6700     3.9480     4.5520 c2         1 8UR      -0.120000
     31 C23          4.5150     4.4420     5.3840 c3         1 8UR      -0.056000
     32 N21          6.4980     4.7110     3.8030 na         1 8UR       0.327000
     33 N22          7.4340     3.8630     3.1890 n2         1 8UR      -0.189000
     34 C16          7.1780     2.6420     3.5560 c2         1 8UR       0.067000
     35 O11          7.8020     1.4780     3.2250 os         1 8UR      -0.051000
     36 H1          -0.3600    -0.9030     0.4790 hc         1 8UR       0.077000
     37 H2          -1.5570     0.3440    -1.4410 DU         1 8UR       0.282000
     38 H3          -0.4020    -0.9130    -1.9040 hc         1 8UR       0.103000
     39 H4           1.1340     1.3370     2.1510 h1         1 8UR      -0.113250
     40 H5          -0.3880     1.9860     2.7720 h1         1 8UR      -0.113250
     41 H6           3.1130    -0.1170     1.4390 h1         1 8UR      -0.113250
     42 H7           1.7820     0.9480     1.9040 h1         1 8UR      -0.113250
     43 H8           1.8810    -0.7910    -0.6520 hc         1 8UR       0.075750
     44 H9           1.8810     0.9540    -0.3760 hc         1 8UR       0.075750
     45 H10         -1.5790     1.2870     0.6650 hc         1 8UR       0.075750
     46 H11         -0.0470     2.1120     0.3590 hc         1 8UR       0.075750
     47 H12          3.5900     1.5600     6.9540 ha         1 8UR       0.158000
     48 H13          0.1720     1.2810     4.4120 ha         1 8UR       0.160000
     49 H15          4.0350     0.4090     3.4100 ha         1 8UR       0.127000
     50 H16          5.6310     0.3910     6.9220 hc         1 8UR       0.048000
     51 H17          4.2940    -0.0590     6.9620 hc         1 8UR       0.056167
     52 H18          5.8870    -0.7630     6.6540 hc         1 8UR       0.056167
     53 H19          5.5600     0.0440     8.1930 hc         1 8UR       0.056167
     54 H20          7.5500     2.2030     7.5260 hc         1 8UR       0.056167
     55 H21          7.7860     1.8880     5.8010 hc         1 8UR       0.056167
     56 H22          7.7630     0.5440     6.9510 hc         1 8UR       0.056167
     57 H23          8.0850    -1.3910     3.6580 hn         1 8UR       0.007000
     58 H24          6.8820    -1.3390     2.5530 hn         1 8UR       0.007000
     59 H25          3.6730     3.7710     5.2690 hc         1 8UR       0.070000
     60 H26          4.8090     4.4770     6.4260 hc         1 8UR       0.070000
     61 H27          4.2330     5.4350     5.0560 hc         1 8UR       0.070000
     62 H28          6.4500     5.7050     3.7000 hn         1 8UR       0.117000
     63 H173         8.3420    -0.6050     2.2760 hn         1 8UR       0.007000
     64 C31          0.8880     1.5570     7.0000 c3         1 8UR       0.420000
@<TRIPOS>BOND
     1     1     2 1   
     2     1     6 1   
     3     1     7 1   
     4     1    36 1   
     5     2     4 1   
     6     2    37 1   
     7     2    38 1   
     8     3     7 1   
     9     3     8 1   
    10     3    39 1   
    11     3    40 1   
    12     4    16 1   
    13     4    17 1   
    14     4    37 1   
    15     5     6 1   
    16     5     8 1   
    17     5    41 1   
    18     5    42 1   
    19     6    43 1   
    20     6    44 1   
    21     7    45 1   
    22     7    46 1   
    23     8    15 1   
    24     9    64 1   
    25    10    64 1   
    26    11    64 1   
    27    12    13 1   
    28    12    14 1   
    29    12    64 1   
    30    13    19 1   
    31    13    47 1   
    32    14    15 1   
    33    14    48 1   
    34    15    18 1   
    35    18    19 1   
    36    18    49 1   
    37    19    20 1   
    38    20    21 1   
    39    20    24 1   
    40    20    29 1   
    41    21    22 1   
    42    21    23 1   
    43    21    50 1   
    44    22    51 1   
    45    22    52 1   
    46    22    53 1   
    47    23    54 1   
    48    23    55 1   
    49    23    56 1   
    50    24    25 1   
    51    24    27 1   
    52    25    26 1   
    53    27    28 1   
    54    27    35 1   
    55    28    57 1   
    56    28    58 1   
    57    28    63 1   
    58    29    30 1   
    59    29    34 1   
    60    30    31 1   
    61    30    32 1   
    62    31    59 1   
    63    31    60 1   
    64    31    61 1   
    65    32    33 1   
    66    32    62 1   
    67    33    34 1   
    68    34    35 1   
@<TRIPOS>SUBSTRUCTURE
     1 8UR         1 TEMP              0 ****  ****    0 ROOT
