@<TRIPOS>MOLECULE
molecule
   64    67     1     0     0
SMALL
bcc


@<TRIPOS>ATOM
      1 C4           0.0000     0.0000     0.0000 c3         1 8UR      -0.020700
      2 C7          -0.5120     0.0600    -1.4410 c3         1 8UR      -0.504400
      3 C6           0.0620     1.1860     2.1960 c3         1 8UR      -0.247700
      4 C8          -2.0140    -0.0640    -1.4460 c          1 8UR       0.870600
      5 C2           2.0360     0.0000     1.4440 c3         1 8UR      -0.247700
      6 C3           1.5310     0.0000     0.0000 c3         1 8UR      -0.056400
      7 C5          -0.5030     1.2220     0.7740 c3         1 8UR      -0.056400
      8 N1           1.5300     1.1880     2.1420 nh         1 8UR      -0.193000
      9 F35         -0.3050     0.8770     6.7400 f          1 8UR      -0.216633
     10 F33          0.6080     2.9000     7.2770 f          1 8UR      -0.216633
     11 F34          1.5240     0.9770     8.1030 f          1 8UR      -0.216633
     12 C28          1.7910     1.4690     5.7970 ca         1 8UR      -0.157300
     13 C27          3.1640     1.4820     5.9610 ca         1 8UR      -0.118000
     14 C36          1.2450     1.3700     4.5320 ca         1 8UR      -0.060000
     15 C29          2.0780     1.2890     3.4230 ca         1 8UR       0.047600
     16 O10         -2.6850    -0.0360    -2.6080 o          1 8UR      -0.823800
     17 O9          -2.6140    -0.1870    -0.4040 o          1 8UR      -0.823800
     18 C30          3.4570     1.3070     3.5900 ca         1 8UR      -0.155000
     19 C26          3.9960     1.4010     4.8580 ca         1 8UR      -0.108300
     20 C14          5.4910     1.4210     5.0410 c3         1 8UR       0.155800
     21 C24          5.8290     1.3830     6.5330 c3         1 8UR      -0.305700
     22 C32          5.3580     0.0540     7.1290 c3         1 8UR      -0.081100
     23 C25          7.3420     1.5140     6.7160 c3         1 8UR      -0.081100
     24 C13          6.1040     0.2310     4.3480 ce         1 8UR       0.002100
     25 C18          5.5300    -1.0610     4.5740 cg         1 8UR       0.100500
     26 N19          5.0630    -2.0780     4.7670 n1         1 8UR      -0.234800
     27 C12          7.1700     0.3260     3.5260 c2         1 8UR       0.123100
     28 N17          7.6430    -0.8300     2.9570 nz         1 8UR      -0.659400
     29 C15          6.0620     2.6710     4.4230 cd         1 8UR      -0.339600
     30 C20          5.6700     3.9480     4.5520 cc         1 8UR       0.033400
     31 C23          4.5150     4.4420     5.3840 c3         1 8UR      -0.039800
     32 N21          6.4980     4.7110     3.8030 na         1 8UR      -0.024600
     33 N22          7.4340     3.8630     3.1890 nc         1 8UR      -0.460800
     34 C16          7.1780     2.6420     3.5560 cd         1 8UR       0.544600
     35 O11          7.8020     1.4780     3.2250 os         1 8UR      -0.304400
     36 H1          -0.3600    -0.9030     0.4790 hc         1 8UR       0.063700
     37 H2          -1.5570     0.3440    -1.4410 hc         1 8UR       0.174700
     38 H3          -0.4020    -0.9130    -1.9040 hc         1 8UR       0.174700
     39 H4           1.1340     1.3370     2.1510 h1         1 8UR       0.114450
     40 H5          -0.3880     1.9860     2.7720 h1         1 8UR       0.114450
     41 H6           3.1130    -0.1170     1.4390 h1         1 8UR       0.114450
     42 H7           1.7820     0.9480     1.9040 h1         1 8UR       0.114450
     43 H8           1.8810    -0.7910    -0.6520 hc         1 8UR       0.059700
     44 H9           1.8810     0.9540    -0.3760 hc         1 8UR       0.059700
     45 H10         -1.5790     1.2870     0.6650 hc         1 8UR       0.059700
     46 H11         -0.0470     2.1120     0.3590 hc         1 8UR       0.059700
     47 H12          3.5900     1.5600     6.9540 ha         1 8UR       0.172000
     48 H13          0.1720     1.2810     4.4120 ha         1 8UR       0.204000
     49 H15          4.0350     0.4090     3.4100 ha         1 8UR       0.148000
     50 H16          5.6310     0.3910     6.9220 hc         1 8UR       0.212700
     51 H17          4.2940    -0.0590     6.9620 hc         1 8UR       0.058700
     52 H18          5.8870    -0.7630     6.6540 hc         1 8UR       0.058700
     53 H19          5.5600     0.0440     8.1930 hc         1 8UR       0.058700
     54 H20          7.5500     2.2030     7.5260 hc         1 8UR       0.058700
     55 H21          7.7860     1.8880     5.8010 hc         1 8UR       0.058700
     56 H22          7.7630     0.5440     6.9510 hc         1 8UR       0.058700
     57 H23          8.0850    -1.3910     3.6580 hn         1 8UR       0.475133
     58 H24          6.8820    -1.3390     2.5530 hn         1 8UR       0.475133
     59 H25          3.6730     3.7710     5.2690 hc         1 8UR       0.072367
     60 H26          4.8090     4.4770     6.4260 hc         1 8UR       0.072367
     61 H27          4.2330     5.4350     5.0560 hc         1 8UR       0.072367
     62 H28          6.4500     5.7050     3.7000 hn         1 8UR       0.358700
     63 H173         8.3420    -0.6050     2.2760 hn         1 8UR       0.475133
     64 C31          0.8880     1.5570     7.0000 c3         1 8UR       0.677200
@<TRIPOS>BOND
     1    16     4 1
     2    17     4 1
     3     4     2 1
     4     2     1 1
     5     7     1 1
     6     7     3 1
     7     1     6 1
     8    32    33 1
     9    32    30 1
    10     3     8 1
    11    31    30 1
    12    33    34 2
    13    30    29 2
    14     6     5 1
    15     8     5 1
    16     8    15 1
    17    34    29 1
    18    34    35 1
    19    29    20 1
    20    18    15 ar
    21    18    19 ar
    22    35    27 1
    23    15    14 ar
    24    23    21 1
    25    20    19 1
    26    20    21 1
    27    20    24 1
    28    19    13 ar
    29    14    12 ar
    30    21    22 1
    31    27    24 2
    32    27    28 1
    33    24    25 1
    34    13    12 ar
    35    12    64 1
    36    25    26 3
    37    11    64 1
    38    64    10 1
    39    64     9 1
    40     1    36 1
    41     2    37 1
    42     2    38 1
    43     3    39 1
    44     3    40 1
    45     5    41 1
    46     5    42 1
    47     6    43 1
    48     6    44 1
    49     7    45 1
    50     7    46 1
    51    13    47 1
    52    14    48 1
    53    18    49 1
    54    21    50 1
    55    22    51 1
    56    22    52 1
    57    22    53 1
    58    23    54 1
    59    23    55 1
    60    23    56 1
    61    28    57 1
    62    28    58 1
    63    31    59 1
    64    31    60 1
    65    31    61 1
    66    32    62 1
    67    63    28 1
@<TRIPOS>SUBSTRUCTURE
     1 8UR         1 TEMP              0 ****  ****    0 ROOT
