@<TRIPOS>MOLECULE
molecule
   43    46     1     0     0
SMALL
bcc


@<TRIPOS>ATOM
      1 C7           0.0000     0.0000     0.0000 ca         1 8US       0.091600
      2 C6           1.3470    -0.0010     2.4310 ca         1 8US       0.008200
      3 C1          -0.6380    -4.7040    -1.7570 cc         1 8US      -0.186000
      4 C5           2.0690     0.0000     1.2140 ca         1 8US      -0.149600
      5 C4          -0.0480     0.0050     2.4110 ca         1 8US      -0.164000
      6 C3           1.3820     0.0000     0.0000 ca         1 8US      -0.088000
      7 C2          -0.9480    -3.4290    -2.2030 cc         1 8US      -0.002000
      8 C8          -0.7120     0.0050     1.2030 ca         1 8US       0.141900
      9 C9           0.5900    -4.8310    -1.2330 cd         1 8US       0.175500
     10 C10          0.0190    -2.5260    -2.0430 cd         1 8US      -0.288600
     11 C11          2.1020    -0.0010     3.6870 cd         1 8US      -0.210200
     12 C12          3.4440    -0.0110     3.6500 cc         1 8US      -0.001400
     13 C13          3.5340    -0.0070     1.2750 c          1 8US       0.705100
     14 C14          3.2650    -7.7520    -0.9650 c3         1 8US      -0.102400
     15 C15          2.1090    -6.9060    -1.5380 c3         1 8US       0.118800
     16 C16          3.0490    -5.5850     0.1580 c3         1 8US       0.113800
     17 C17          3.8830    -6.8840     0.1510 c3         1 8US       0.144100
     18 N18          4.1450    -0.0110     2.4770 ns         1 8US      -0.440100
     19 N19          1.7440    -5.9760    -0.4380 nh         1 8US      -0.520000
     20 N20         -0.6930     0.0010    -1.2150 nu         1 8US      -0.760500
     21 O21          4.1930    -0.0060     0.2500 o          1 8US      -0.619500
     22 O22          1.2470    -0.3740    -2.6690 o          1 8US      -0.623800
     23 O23         -1.0600    -0.7640    -3.5480 o          1 8US      -0.623800
     24 O24          5.2500    -6.5950    -0.1460 oh         1 8US      -0.596800
     25 F25         -2.0630     0.0100     1.1820 f          1 8US      -0.135900
     26 S26          1.4200    -3.2830    -1.2980 ss         1 8US      -0.081800
     27 S27         -0.0890    -0.8320    -2.5130 sy         1 8US       1.448200
     28 H2          -0.6060     0.0090     3.3390 ha         1 8US       0.154000
     29 H3           1.9280    -0.0040    -0.9360 ha         1 8US       0.217000
     30 H4          -1.9060    -3.1850    -2.6460 ha         1 8US       0.166000
     31 H5           1.5810    -0.0010     4.6370 ha         1 8US       0.151000
     32 H6           3.9920    -0.0150     4.5850 h4         1 8US       0.150000
     33 H7           2.8820    -8.6780    -0.5510 hc         1 8US       0.064700
     34 H8           4.0000    -7.9520    -1.7350 hc         1 8US       0.064700
     35 H9           1.2670    -7.5390    -1.7890 h1         1 8US       0.059200
     36 H10          2.4430    -6.3500    -2.4050 h1         1 8US       0.059200
     37 H11          2.9090    -5.2330     1.1720 h1         1 8US       0.068200
     38 H12          3.5280    -4.8270    -0.4500 h1         1 8US       0.068200
     39 H13          3.7980    -7.3880     1.1070 h1         1 8US       0.047700
     40 H14          5.1450    -0.0190     2.5110 hn         1 8US       0.337500
     41 H15         -1.5370     0.5300    -1.3090 hn         1 8US       0.470800
     42 H16          5.7930    -6.8660     0.5760 ho         1 8US       0.406000
     43 H1          -1.3330    -5.5320    -1.8260 ha         1 8US       0.161000
@<TRIPOS>BOND
     1    12    18 1   
     2    12    11 2   
     3    18    13 1   
     4    11     2 1   
     5    21    13 2   
     6    13     4 1   
     7     2     4 ar  
     8     2     5 ar  
     9     4     6 ar  
    10     5     8 ar  
    11     6     1 ar  
    12     8     1 ar  
    13     8    25 1   
    14     1    20 1   
    15    22    27 2   
    16    20    27 1   
    17     7    10 2   
    18     7     3 1   
    19    27    10 1   
    20    27    23 2   
    21    10    26 1   
    22     3     9 2   
    23     9    26 1   
    24     9    19 1   
    25    15    19 1   
    26    15    14 1   
    27    19    16 1   
    28    14    17 1   
    29    16    17 1   
    30    17    24 1   
    31     3    43 1   
    32     5    28 1   
    33     6    29 1   
    34     7    30 1   
    35    11    31 1   
    36    12    32 1   
    37    14    33 1   
    38    14    34 1   
    39    15    35 1   
    40    15    36 1   
    41    16    37 1   
    42    16    38 1   
    43    17    39 1   
    44    18    40 1   
    45    20    41 1   
    46    24    42 1   
@<TRIPOS>SUBSTRUCTURE
     1 8US         1 TEMP              0 ****  ****    0 ROOT
