@<TRIPOS>MOLECULE
8UU
   67    71     1     0     0
SMALL
bcc


@<TRIPOS>ATOM
      1 F37          0.0000     0.0000     0.0000 f          1 8UU      -0.133000
      2 C21          1.3990     0.0000     0.0000 c3         1 8UU       0.418000
      3 F35          1.8650     0.0000     1.3190 f          1 8UU      -0.133000
      4 F36          1.8650    -1.1420    -0.6610 f          1 8UU      -0.133000
      5 C18          1.9010     1.2310    -0.7100 ca         1 8UU      -0.203000
      6 C17          3.1090     1.1970    -1.3820 ca         1 8UU      -0.103000
      7 C34          1.1520     2.3910    -0.6940 ca         1 8UU      -0.110000
      8 C19          1.6150     3.5250    -1.3480 ca         1 8UU       0.006000
      9 N23          0.8590     4.6990    -1.3330 nh         1 8UU       0.011000
     10 C28         -0.3840     4.5160    -0.5720 c3         1 8UU      -0.108000
     11 C27         -1.1130     5.8560    -0.4550 c3         1 8UU      -0.104500
     12 C26         -1.4250     6.3880    -1.8560 c3         1 8UU      -0.116000
     13 C29         -2.1020     7.7560    -1.7450 c3         1 8UU      -0.087000
     14 C30         -2.5240     8.2300    -3.1370 c3         1 8UU      -0.313000
     15 C31         -3.1910     9.5770    -3.0280 c2         1 8UU       0.463000
     16 O33         -3.6480    10.1910    -4.1310 o          1 8UU      -0.614000
     17 O32         -3.3150    10.1040    -1.9490 o          1 8UU      -0.614000
     18 C25         -0.1190     6.5230    -2.6430 c3         1 8UU      -0.104500
     19 C24          0.5820     5.1640    -2.6990 c3         1 8UU      -0.108000
     20 C20          2.8310     3.4880    -2.0170 ca         1 8UU      -0.118000
     21 C16          3.5730     2.3240    -2.0340 ca         1 8UU      -0.068000
     22 C4           4.8940     2.2840    -2.7590 c3         1 8UU       0.173000
     23 C14          5.4430     0.8560    -2.7540 c3         1 8UU      -0.319000
     24 C22          4.5050    -0.0540    -3.5500 DU         1 8UU       0.037000
     25 C15          6.8320     0.8410    -3.3930 c3         1 8UU      -0.107000
     26 C3           4.7080     2.7520    -4.1810 c2         1 8UU       0.049000
     27 C8           3.6310     2.2010    -4.9460 c1         1 8UU      -0.204000
     28 N9           2.7840     1.7460    -5.5500 n1         1 8UU       0.078000
     29 C2           5.5100     3.6670    -4.7640 c2         1 8UU      -0.233000
     30 N7           5.2440     4.0110    -6.0660 nz         1 8UU       0.877000
     31 C5           5.8740     3.2080    -2.0840 c2         1 8UU      -0.292000
     32 C10          6.1850     3.3240    -0.7840 c2         1 8UU      -0.067000
     33 C13          5.5950     2.5210     0.3470 c3         1 8UU      -0.089000
     34 N11          7.1230     4.2930    -0.6720 na         1 8UU       0.326000
     35 N12          7.3950     4.7880    -1.9570 n2         1 8UU      -0.194000
     36 C6           6.6490     4.1420    -2.8060 c2         1 8UU       0.059000
     37 O1           6.5530     4.2670    -4.1580 os         1 8UU      -0.054000
     38 H1           3.6450     0.5900    -0.6620 ha         1 8UU       0.150000
     39 H2           0.2480     2.2060    -0.1250 ha         1 8UU       0.149000
     40 H3           0.1030     4.4390     0.3930 h1         1 8UU       0.043250
     41 H4          -0.7670     3.6030    -1.0110 h1         1 8UU       0.043250
     42 H5          -2.1690     5.6610    -0.3090 hc         1 8UU       0.092000
     43 H6          -0.5170     6.4070     0.2630 hc         1 8UU       0.092000
     44 H7          -2.0820     5.6940    -2.3670 hc         1 8UU       0.062000
     45 H8          -3.1770     7.6400    -1.6770 hc         1 8UU       0.080500
     46 H9          -1.5690     8.2410    -0.9360 hc         1 8UU       0.080500
     47 H10         -2.6660     7.4700    -3.8970 hc         1 8UU       0.079500
     48 H11         -3.5930     8.2200    -2.9600 hc         1 8UU       0.079500
     49 H13         -0.5540     6.9490    -3.5390 hc         1 8UU       0.092000
     50 H14          0.7050     6.9630    -2.0940 hc         1 8UU       0.092000
     51 H15          0.4130     4.2480    -3.2520 h1         1 8UU       0.043250
     52 H16          1.5710     5.4000    -3.0720 h1         1 8UU       0.043250
     53 H17          3.2820     4.2780    -2.6060 ha         1 8UU       0.111000
     54 H18          5.1720     0.1870    -3.5620 DU         1 8UU       0.194000
     55 H19          4.4920     0.0060    -4.6320 ha         1 8UU       0.054000
     56 H20          3.4780    -0.3290    -3.3450 ha         1 8UU       0.054000
     57 H21          4.9950    -1.0180    -3.6110 ha         1 8UU       0.054000
     58 H22          7.7810     0.5370    -2.9690 hc         1 8UU       0.035333
     59 H23          7.0130     1.8110    -3.8390 hc         1 8UU       0.035333
     60 H24          6.8390     0.2260    -4.2850 hc         1 8UU       0.035333
     61 H25          4.6970     3.2640    -6.4450 hn         1 8UU       0.034000
     62 H26          5.0820     4.9000    -6.4950 hn         1 8UU       0.034000
     63 H27          6.3640     1.8580     0.7250 hc         1 8UU       0.070667
     64 H28          4.9030     1.7330     0.0770 hc         1 8UU       0.070667
     65 H29          5.2720     2.9310     1.2960 hc         1 8UU       0.070667
     66 H30          7.6340     4.6500     0.1110 hn         1 8UU       0.120000
     67 H73          6.1050     4.4260    -6.3630 hn         1 8UU       0.034000
@<TRIPOS>BOND
     1     1     2 1   
     2     2     3 1   
     3     2     4 1   
     4     2     5 1   
     5     5     6 1   
     6     5     7 1   
     7     6    21 1   
     8     6    38 1   
     9     7     8 1   
    10     7    39 1   
    11     8     9 1   
    12     8    20 1   
    13     9    10 1   
    14     9    19 1   
    15    10    11 1   
    16    10    40 1   
    17    10    41 1   
    18    11    12 1   
    19    11    42 1   
    20    11    43 1   
    21    12    13 1   
    22    12    18 1   
    23    12    44 1   
    24    13    14 1   
    25    13    45 1   
    26    13    46 1   
    27    14    15 1   
    28    14    47 1   
    29    14    48 1   
    30    15    16 1   
    31    15    17 1   
    32    18    19 1   
    33    18    49 1   
    34    18    50 1   
    35    19    51 1   
    36    19    52 1   
    37    20    21 1   
    38    20    53 1   
    39    21    22 1   
    40    22    23 1   
    41    22    26 1   
    42    22    31 1   
    43    23    24 1   
    44    23    25 1   
    45    23    54 1   
    46    24    54 1   
    47    24    55 1   
    48    24    56 1   
    49    24    57 1   
    50    25    58 1   
    51    25    59 1   
    52    25    60 1   
    53    26    27 1   
    54    26    29 1   
    55    27    28 1   
    56    29    30 1   
    57    29    37 1   
    58    30    61 1   
    59    30    62 1   
    60    30    67 1   
    61    31    32 1   
    62    31    36 1   
    63    32    33 1   
    64    32    34 1   
    65    33    63 1   
    66    33    64 1   
    67    33    65 1   
    68    34    35 1   
    69    34    66 1   
    70    35    36 1   
    71    36    37 1   
@<TRIPOS>SUBSTRUCTURE
     1 8UU         1 TEMP              0 ****  ****    0 ROOT
