@<TRIPOS>MOLECULE
molecule
   67    70     1     0     0
SMALL
bcc


@<TRIPOS>ATOM
      1 F37          0.0000     0.0000     0.0000 f          1 8UU      -0.220300
      2 C21          1.3990     0.0000     0.0000 c3         1 8UU       0.672200
      3 F35          1.8650     0.0000     1.3190 f          1 8UU      -0.220300
      4 F36          1.8650    -1.1420    -0.6610 f          1 8UU      -0.220300
      5 C18          1.9010     1.2310    -0.7100 ca         1 8UU      -0.186300
      6 C17          3.1090     1.1970    -1.3820 ca         1 8UU      -0.128000
      7 C34          1.1520     2.3910    -0.6940 ca         1 8UU      -0.138000
      8 C19          1.6150     3.5250    -1.3480 ca         1 8UU       0.158600
      9 N23          0.8590     4.6990    -1.3330 nh         1 8UU      -0.617000
     10 C28         -0.3840     4.5160    -0.5720 c3         1 8UU       0.153800
     11 C27         -1.1130     5.8560    -0.4550 c3         1 8UU      -0.073400
     12 C26         -1.4250     6.3880    -1.8560 c3         1 8UU      -0.090700
     13 C29         -2.1020     7.7560    -1.7450 c3         1 8UU      -0.064400
     14 C30         -2.5240     8.2300    -3.1370 c3         1 8UU      -0.303400
     15 C31         -3.1910     9.5770    -3.0280 c          1 8UU       0.936600
     16 O33         -3.6480    10.1910    -4.1310 o          1 8UU      -0.844300
     17 O32         -3.3150    10.1040    -1.9490 o          1 8UU      -0.844300
     18 C25         -0.1190     6.5230    -2.6430 c3         1 8UU      -0.073400
     19 C24          0.5820     5.1640    -2.6990 c3         1 8UU       0.153800
     20 C20          2.8310     3.4880    -2.0170 ca         1 8UU      -0.132000
     21 C16          3.5730     2.3240    -2.0340 ca         1 8UU      -0.068300
     22 C4           4.8940     2.2840    -2.7590 c3         1 8UU       0.179800
     23 C14          5.4430     0.8560    -2.7540 c3         1 8UU      -0.325700
     24 C22          4.5050    -0.0540    -3.5500 c3         1 8UU      -0.067100
     25 C15          6.8320     0.8410    -3.3930 c3         1 8UU      -0.067100
     26 C3           4.7080     2.7520    -4.1810 ce         1 8UU       0.012100
     27 C8           3.6310     2.2010    -4.9460 cg         1 8UU       0.125500
     28 N9           2.7840     1.7460    -5.5500 n1         1 8UU      -0.261800
     29 C2           5.5100     3.6670    -4.7640 c2         1 8UU       0.151100
     30 N7           5.2440     4.0110    -6.0660 nz         1 8UU      -0.740400
     31 C5           5.8740     3.2080    -2.0840 cd         1 8UU      -0.342600
     32 C10          6.1850     3.3240    -0.7840 cc         1 8UU       0.077400
     33 C13          5.5950     2.5210     0.3470 c3         1 8UU      -0.069800
     34 N11          7.1230     4.2930    -0.6720 na         1 8UU      -0.026600
     35 N12          7.3950     4.7880    -1.9570 nc         1 8UU      -0.476800
     36 C6           6.6490     4.1420    -2.8060 cd         1 8UU       0.543600
     37 O1           6.5530     4.2670    -4.1580 os         1 8UU      -0.316400
     38 H1           3.6450     0.5900    -0.6620 ha         1 8UU       0.164000
     39 H2           0.2480     2.2060    -0.1250 ha         1 8UU       0.169000
     40 H3           0.1030     4.4390     0.3930 h1         1 8UU       0.025200
     41 H4          -0.7670     3.6030    -1.0110 h1         1 8UU       0.025200
     42 H5          -2.1690     5.6610    -0.3090 hc         1 8UU       0.080700
     43 H6          -0.5170     6.4070     0.2630 hc         1 8UU       0.080700
     44 H7          -2.0820     5.6940    -2.3670 hc         1 8UU       0.041700
     45 H8          -3.1770     7.6400    -1.6770 hc         1 8UU       0.066200
     46 H9          -1.5690     8.2410    -0.9360 hc         1 8UU       0.066200
     47 H10         -2.6660     7.4700    -3.8970 hc         1 8UU       0.049200
     48 H11         -3.5930     8.2200    -2.9600 hc         1 8UU       0.049200
     49 H13         -0.5540     6.9490    -3.5390 hc         1 8UU       0.080700
     50 H14          0.7050     6.9630    -2.0940 hc         1 8UU       0.080700
     51 H15          0.4130     4.2480    -3.2520 h1         1 8UU       0.025200
     52 H16          1.5710     5.4000    -3.0720 h1         1 8UU       0.025200
     53 H17          3.2820     4.2780    -2.6060 ha         1 8UU       0.134000
     54 H18          5.1720     0.1870    -3.5620 hc         1 8UU       0.271700
     55 H19          4.4920     0.0060    -4.6320 hc         1 8UU       0.046033
     56 H20          3.4780    -0.3290    -3.3450 hc         1 8UU       0.046033
     57 H21          4.9950    -1.0180    -3.6110 hc         1 8UU       0.046033
     58 H22          7.7810     0.5370    -2.9690 hc         1 8UU       0.046033
     59 H23          7.0130     1.8110    -3.8390 hc         1 8UU       0.046033
     60 H24          6.8390     0.2260    -4.2850 hc         1 8UU       0.046033
     61 H25          4.6970     3.2640    -6.4450 hn         1 8UU       0.489133
     62 H26          5.0820     4.9000    -6.4950 hn         1 8UU       0.489133
     63 H27          6.3640     1.8580     0.7250 hc         1 8UU       0.070700
     64 H28          4.9030     1.7330     0.0770 hc         1 8UU       0.070700
     65 H29          5.2720     2.9310     1.2960 hc         1 8UU       0.070700
     66 H30          7.6340     4.6500     0.1110 hn         1 8UU       0.359700
     67 H73          6.1050     4.4260    -6.3630 hn         1 8UU       0.489133
@<TRIPOS>BOND
     1    16    15 1   
     2    17    15 1   
     3    15    14 1   
     4    13    14 1   
     5    13    12 1   
     6    18    12 1   
     7    18    19 1   
     8    12    11 1   
     9    34    35 1   
    10    34    32 1   
    11    19     9 1   
    12    35    36 2   
    13    33    32 1   
    14    11    10 1   
    15    32    31 2   
    16     9    10 1   
    17     9     8 1   
    18    36    31 1   
    19    36    37 1   
    20    31    22 1   
    21    37    29 1   
    22    20     8 ar  
    23    20    21 ar  
    24     8     7 ar  
    25    22    21 1   
    26    22    23 1   
    27    22    26 1   
    28    21     6 ar  
    29    25    23 1   
    30     7     5 ar  
    31    24    23 1   
    32    29    26 2   
    33    29    30 1   
    34    26    27 1   
    35     6     5 ar  
    36     5     2 1   
    37     4     2 1   
    38    27    28 3   
    39     2     3 1   
    40     2     1 1   
    41     6    38 1   
    42     7    39 1   
    43    10    40 1   
    44    10    41 1   
    45    11    42 1   
    46    11    43 1   
    47    12    44 1   
    48    13    45 1   
    49    13    46 1   
    50    14    47 1   
    51    14    48 1   
    52    18    49 1   
    53    18    50 1   
    54    19    51 1   
    55    19    52 1   
    56    20    53 1   
    57    23    54 1   
    58    24    55 1   
    59    24    56 1   
    60    24    57 1   
    61    25    58 1   
    62    25    59 1   
    63    25    60 1   
    64    30    61 1   
    65    30    62 1   
    66    33    63 1   
    67    33    64 1   
    68    33    65 1   
    69    34    66 1   
    70    67    30 1   
@<TRIPOS>SUBSTRUCTURE
     1 8UU         1 TEMP              0 ****  ****    0 ROOT
