@<TRIPOS>MOLECULE
8UV
   40    42     1     0     0
SMALL
bcc


@<TRIPOS>ATOM
      1 C1           0.0000     0.0000     0.0000 c3         1 8UV       0.244700
      2 C4           1.2910    -0.0000     2.3750 ca         1 8UV      -0.206000
      3 C6           3.3020     0.0130     3.6760 ca         1 8UV      -0.128000
      4 C9           5.5610     0.0080     2.5980 c3         1 8UV      -0.031100
      5 N12          7.3910    -1.6520     2.7170 ns         1 8UV      -0.063400
      6 C13          7.8590    -2.9590     2.7590 cc         1 8UV       0.425300
      7 C19         10.5910    -7.3660     2.2550 ca         1 8UV      -0.269300
      8 C20         11.8570    -7.9110     2.2640 ca         1 8UV       0.465200
      9 C22         12.8330    -5.8310     2.5330 ca         1 8UV       0.504200
     10 O2           1.4290     0.0000     0.0000 os         1 8UV      -0.308900
     11 C3           2.0460     0.0000     1.2110 ca         1 8UV       0.156100
     12 C5           1.9210     0.0070     3.6050 ca         1 8UV      -0.051000
     13 C7           4.0560     0.0010     2.5170 ca         1 8UV      -0.040300
     14 C8           3.4310     0.0010     1.2850 ca         1 8UV      -0.125000
     15 C10          6.0670    -1.4110     2.6430 c          1 8UV       0.539100
     16 O11          5.2840    -2.3360     2.6120 o          1 8UV      -0.581100
     17 N14          9.1050    -3.3080     2.8300 nd         1 8UV      -0.577000
     18 C15          9.3660    -4.6080     2.8610 cd         1 8UV       0.396800
     19 C16          8.2900    -5.4130     2.8130 cc         1 8UV      -0.172400
     20 S17          6.8480    -4.4020     2.7290 ss         1 8UV      -0.273300
     21 C18         10.4430    -5.9800     2.3920 ca         1 8UV      -0.008500
     22 N21         12.9250    -7.1460     2.4010 nb         1 8UV      -0.661000
     23 C23         11.5940    -5.2040     2.5380 ca         1 8UV      -0.331300
     24 H1          -0.3610     0.0010    -1.0210 h1         1 8UV      -0.002633
     25 H2          -0.3610     0.8840     0.5120 h1         1 8UV      -0.002633
     26 H3          -0.3610    -0.8850     0.5100 h1         1 8UV      -0.002633
     27 H4           0.2090    -0.0050     2.3210 ha         1 8UV       0.120000
     28 H5           3.7930     0.0180     4.6410 ha         1 8UV       0.105000
     29 H6           5.8720     0.5320     3.4940 hc         1 8UV       0.034700
     30 H7           5.9670     0.5090     1.7280 hc         1 8UV       0.034700
     31 H8           8.0380    -0.8890     2.7420 hn         1 8UV       0.175500
     32 H9           9.7210    -8.0010     2.1430 ha         1 8UV       0.116000
     33 H10         11.9780    -8.9820     2.1590 h4         1 8UV      -0.020900
     34 H11          1.3320     0.0110     4.5140 ha         1 8UV       0.100000
     35 H12          4.0220    -0.0040     0.3770 ha         1 8UV       0.116000
     36 H13          8.3060    -6.4960     2.8290 h4         1 8UV       0.170000
     37 H14         11.5220    -4.1280     2.6460 ha         1 8UV       0.142000
     38 H15         13.9250    -4.0780     2.7860 hn         1 8UV       0.270300
     39 H16         14.8840    -5.5180     2.6770 hn         1 8UV       0.270300
     40 N24         13.9890    -5.0710     2.6780 nv         1 8UV      -0.529500
@<TRIPOS>BOND
     1     1    10 1   
     2     1    24 1   
     3     1    25 1   
     4     1    26 1   
     5     2    11 ar  
     6     2    12 ar  
     7     2    27 1   
     8     3    12 ar  
     9     3    13 ar  
    10     3    28 1   
    11     4    13 1   
    12     4    15 1   
    13     4    29 1   
    14     4    30 1   
    15     5     6 1   
    16     5    15 1   
    17     5    31 1   
    18     6    17 2   
    19     6    20 1   
    20     7     8 ar  
    21     7    21 ar  
    22     7    32 1   
    23     8    22 ar  
    24     8    33 1   
    25     9    22 ar  
    26     9    23 ar  
    27     9    40 1   
    28    10    11 1   
    29    11    14 ar  
    30    12    34 1   
    31    13    14 ar  
    32    14    35 1   
    33    15    16 2   
    34    17    18 1   
    35    18    19 2   
    36    18    21 1   
    37    19    20 1   
    38    19    36 1   
    39    21    23 ar  
    40    23    37 1   
    41    38    40 1   
    42    39    40 1   
@<TRIPOS>SUBSTRUCTURE
     1 8UV         1 TEMP              0 ****  ****    0 ROOT
