@<TRIPOS>MOLECULE
molecule
   40    40     1     0     0
SMALL
bcc


@<TRIPOS>ATOM
      1 OXT          0.0000     0.0000     0.0000 o          1 8UX      -0.872300
      2 C            1.3420     0.0000     0.0000 c          1 8UX       0.897600
      3 O            1.9470     0.0000     1.0460 o          1 8UX      -0.872300
      4 CA           2.0950    -0.0020    -1.3060 c3         1 8UX       0.072500
      5 CB           1.7240    -1.2520    -2.1070 c3         1 8UX      -0.098100
      6 N            3.5390    -0.0020    -1.0380 n7         1 8UX      -0.777200
      7 CAV          4.2840     0.5750    -2.1650 c3         1 8UX       0.059500
      8 CAR          4.5400    -0.4910    -3.1980 c          1 8UX       0.870600
      9 OAF          5.2090    -0.1900    -4.3220 o          1 8UX      -0.884800
     10 OAC          4.1440    -1.6170    -3.0150 o          1 8UX      -0.884800
     11 CAK          5.6170     1.1310    -1.6640 c3         1 8UX      -0.044400
     12 CAJ          5.3580     2.2990    -0.7090 c3         1 8UX       0.157800
     13 NAN          6.6390     2.8320    -0.2280 n7         1 8UX      -0.818200
     14 CAW          6.4280     3.9560     0.6930 c3         1 8UX       0.066500
     15 CAS          6.1980     3.4290     2.0860 c          1 8UX       0.867600
     16 OAG          5.9810     4.2810     3.1000 o          1 8UX      -0.856300
     17 OAD          6.2090     2.2380     2.2910 o          1 8UX      -0.856300
     18 CAL          7.6630     4.8590     0.6870 c3         1 8UX      -0.078700
     19 CAT          7.8220     5.4850    -0.6750 cc         1 8UX       0.380600
     20 CAI          7.9200     6.8020    -0.9350 cd         1 8UX      -0.337600
     21 NAM          8.0500     6.9300    -2.2910 na         1 8UX      -0.331900
     22 CAH          8.0300     5.6840    -2.8140 cd         1 8UX       0.355400
     23 NAP          7.8980     4.8250    -1.8410 nc         1 8UX      -0.612000
     24 H2           1.8330     0.8810    -1.8750 h1         1 8UX       0.029700
     25 H3           0.6630    -1.4450    -2.0040 hc         1 8UX       0.020033
     26 H4           1.9640    -1.0960    -3.1510 hc         1 8UX       0.020033
     27 H5           2.2840    -2.1000    -1.7310 hc         1 8UX       0.020033
     28 H6           3.8490    -0.9400    -0.8800 hn         1 8UX       0.359800
     29 H8           3.7030     1.3750    -2.6090 h1         1 8UX       0.038700
     30 H10          6.2040     1.4770    -2.5060 hc         1 8UX       0.033200
     31 H11          6.1600     0.3520    -1.1420 hc         1 8UX       0.033200
     32 H12          4.7710     1.9520     0.1330 h1         1 8UX       0.045200
     33 H13          4.8160     3.0780    -1.2310 h1         1 8UX       0.045200
     34 H14          7.1470     2.1070     0.2410 hn         1 8UX       0.354800
     35 H16          5.5630     4.5260     0.3750 h1         1 8UX       0.052700
     36 H18          7.5450     5.6380     1.4310 hc         1 8UX       0.043700
     37 H19          8.5420     4.2700     0.9190 hc         1 8UX       0.043700
     38 H20          7.8980     7.6070    -0.2100 h4         1 8UX       0.154000
     39 H21          8.1430     7.7860    -2.8000 hn         1 8UX       0.257700
     40 H22          8.1140     5.4390    -3.8660 h5         1 8UX       0.045100
@<TRIPOS>BOND
     1    20    21 1   
     2    20    19 2   
     3    18    19 1   
     4    18    14 1   
     5    21    22 1   
     6    19    23 1   
     7    14    13 1   
     8    14    15 1   
     9    22    23 2   
    10    13    12 1   
    11    17    15 1   
    12    15    16 1   
    13    12    11 1   
    14    10     8 1   
    15    11     7 1   
    16     9     8 1   
    17     8     7 1   
    18     7     6 1   
    19     3     2 1   
    20     6     4 1   
    21     2     4 1   
    22     2     1 1   
    23     4     5 1   
    24     4    24 1   
    25     5    25 1   
    26     5    26 1   
    27     5    27 1   
    28     6    28 1   
    29     7    29 1   
    30    11    30 1   
    31    11    31 1   
    32    12    32 1   
    33    12    33 1   
    34    13    34 1   
    35    14    35 1   
    36    18    36 1   
    37    18    37 1   
    38    20    38 1   
    39    21    39 1   
    40    22    40 1   
@<TRIPOS>SUBSTRUCTURE
     1 8UX         1 TEMP              0 ****  ****    0 ROOT
