@<TRIPOS>MOLECULE
8UX
   40    40     1     0     0
SMALL
bcc


@<TRIPOS>ATOM
      1 OXT          0.0000     0.0000     0.0000 o          1 8UX      -0.921300
      2 C            1.3420     0.0000     0.0000 c          1 8UX       0.984600
      3 O            1.9470     0.0000     1.0460 o          1 8UX      -0.921300
      4 CA           2.0950    -0.0020    -1.3060 c3         1 8UX       0.025500
      5 CB           1.7240    -1.2520    -2.1070 c3         1 8UX      -0.037100
      6 N            3.5390    -0.0020    -1.0380 n7         1 8UX      -0.556200
      7 CAV          4.2840     0.5750    -2.1650 c3         1 8UX       0.007500
      8 CAR          4.5400    -0.4910    -3.1980 c          1 8UX       0.968600
      9 OAF          5.2090    -0.1900    -4.3220 o          1 8UX      -0.928800
     10 OAC          4.1440    -1.6170    -3.0150 o          1 8UX      -0.928800
     11 CAK          5.6170     1.1310    -1.6640 c3         1 8UX      -0.002400
     12 CAJ          5.3580     2.2990    -0.7090 c3         1 8UX       0.125800
     13 NAN          6.6390     2.8320    -0.2280 n7         1 8UX      -0.603200
     14 CAW          6.4280     3.9560     0.6930 c3         1 8UX       0.015500
     15 CAS          6.1980     3.4290     2.0860 c          1 8UX       0.961600
     16 OAG          5.9810     4.2810     3.1000 o          1 8UX      -0.901300
     17 OAD          6.2090     2.2380     2.2910 o          1 8UX      -0.901300
     18 CAL          7.6630     4.8590     0.6870 c3         1 8UX      -0.022700
     19 CAT          7.8220     5.4850    -0.6750 cc         1 8UX       0.358600
     20 CAI          7.9200     6.8020    -0.9350 cd         1 8UX      -0.501600
     21 NAM          8.0500     6.9300    -2.2910 na         1 8UX       0.190100
     22 CAH          8.0300     5.6840    -2.8140 cd         1 8UX       0.168400
     23 NAP          7.8980     4.8250    -1.8410 nc         1 8UX      -0.526000
     24 H2           1.8330     0.8810    -1.8750 h1         1 8UX       0.009700
     25 H3           0.6630    -1.4450    -2.0040 hc         1 8UX       0.002367
     26 H4           1.9640    -1.0960    -3.1510 hc         1 8UX       0.002367
     27 H5           2.2840    -2.1000    -1.7310 hc         1 8UX       0.002367
     28 H6           3.8490    -0.9400    -0.8800 hn         1 8UX       0.271800
     29 H8           3.7030     1.3750    -2.6090 h1         1 8UX       0.020700
     30 H10          6.2040     1.4770    -2.5060 hc         1 8UX       0.010200
     31 H11          6.1600     0.3520    -1.1420 hc         1 8UX       0.010200
     32 H12          4.7710     1.9520     0.1330 h1         1 8UX       0.024200
     33 H13          4.8160     3.0780    -1.2310 h1         1 8UX       0.024200
     34 H14          7.1470     2.1070     0.2410 hn         1 8UX       0.268800
     35 H16          5.5630     4.5260     0.3750 h1         1 8UX       0.030700
     36 H18          7.5450     5.6380     1.4310 hc         1 8UX       0.014700
     37 H19          8.5420     4.2700     0.9190 hc         1 8UX       0.014700
     38 H20          7.8980     7.6070    -0.2100 h4         1 8UX       0.140000
     39 H21          8.1430     7.7860    -2.8000 hn         1 8UX       0.089700
     40 H22          8.1140     5.4390    -3.8660 h5         1 8UX       0.008100
@<TRIPOS>BOND
     1     1     2 1   
     2     2     3 1   
     3     2     4 1   
     4     4     5 1   
     5     4     6 1   
     6     4    24 1   
     7     5    25 1   
     8     5    26 1   
     9     5    27 1   
    10     6     7 1   
    11     6    28 1   
    12     7     8 1   
    13     7    11 1   
    14     7    29 1   
    15     8     9 1   
    16     8    10 1   
    17    11    12 1   
    18    11    30 1   
    19    11    31 1   
    20    12    13 1   
    21    12    32 1   
    22    12    33 1   
    23    13    14 1   
    24    13    34 1   
    25    14    15 1   
    26    14    18 1   
    27    14    35 1   
    28    15    16 1   
    29    15    17 1   
    30    18    19 1   
    31    18    36 1   
    32    18    37 1   
    33    19    20 2   
    34    19    23 1   
    35    20    21 1   
    36    20    38 1   
    37    21    22 1   
    38    21    39 1   
    39    22    23 2   
    40    22    40 1   
@<TRIPOS>SUBSTRUCTURE
     1 8UX         1 TEMP              0 ****  ****    0 ROOT
