@<TRIPOS>MOLECULE
8UY
   25    27     1     0     0
SMALL
bcc


@<TRIPOS>ATOM
      1 N1          -3.2670    -0.0040     1.1950 n1         1 8UY      -0.371800
      2 C4           0.0000     0.0000     0.0000 ca         1 8UY      -0.072000
      3 C5           1.3700     0.0000     0.0000 ca         1 8UY      -0.069500
      4 C6           2.0700     0.0000     1.2110 ca         1 8UY      -0.033000
      5 C7           1.3700     0.0020     2.4210 ca         1 8UY      -0.069500
      6 C8          -0.0000     0.0030     2.4210 ca         1 8UY      -0.072000
      7 C10          4.2340     1.0800     0.7060 cc         1 8UY      -0.108000
      8 C13          5.5930    -1.0860     1.7310 cd         1 8UY      -0.179300
      9 C15          4.9080    -2.9470     2.6110 cc         1 8UY       0.631200
     10 C3          -0.6990     0.0070     1.2110 ca         1 8UY       0.042000
     11 C9           3.5460    -0.0000     1.2110 cd         1 8UY      -0.133300
     12 C11          5.6320     1.0790     0.7070 cc         1 8UY      -0.090000
     13 C12          6.3080     0.0090     1.2130 cd         1 8UY      -0.057000
     14 N14          5.9740    -2.2370     2.2740 nc         1 8UY      -0.409300
     15 N16          3.8190    -2.2910     2.2820 nd         1 8UY      -0.790100
     16 N17          4.2270    -1.0750     1.7140 na         1 8UY       0.685000
     17 H1          -0.5420    -0.0000    -0.9380 ha         1 8UY       0.116500
     18 H2           1.9120    -0.0050    -0.9380 ha         1 8UY       0.115500
     19 H3           1.9110     0.0020     3.3600 ha         1 8UY       0.115500
     20 H4          -0.5420     0.0050     3.3600 ha         1 8UY       0.116500
     21 H5           3.6930     1.9290     0.3080 ha         1 8UY       0.128000
     22 H6           4.9150    -3.9260     3.0740 h5         1 8UY       0.030800
     23 H7           6.1740     1.9290     0.3090 ha         1 8UY       0.118000
     24 H8           7.3910    -0.0010     1.2170 ha         1 8UY       0.130000
     25 C2          -2.1310     0.0080     1.2100 cg         1 8UY       0.225800
@<TRIPOS>BOND
     1     1    25 3   
     2     2     3 ar  
     3     2    10 ar  
     4     2    17 1   
     5     3     4 ar  
     6     3    18 1   
     7     4     5 ar  
     8     4    11 1   
     9     5     6 ar  
    10     5    19 1   
    11     6    10 ar  
    12     6    20 1   
    13     7    11 2   
    14     7    12 1   
    15     7    21 1   
    16     8    13 1   
    17     8    14 2   
    18     8    16 1   
    19     9    14 1   
    20     9    15 2   
    21     9    22 1   
    22    10    25 1   
    23    11    16 1   
    24    12    13 2   
    25    12    23 1   
    26    13    24 1   
    27    15    16 1   
@<TRIPOS>SUBSTRUCTURE
     1 8UY         1 TEMP              0 ****  ****    0 ROOT
