@<TRIPOS>MOLECULE
8V0
   30    31     1     0     0
SMALL
bcc


@<TRIPOS>ATOM
      1 C01          0.0000     0.0000     0.0000 c2         1 8V0      -0.378000
      2 C02          1.3460     0.0000     0.0000 c2         1 8V0      -0.122000
      3 C04          0.7230     0.0000     2.0660 c2         1 8V0      -0.298000
      4 C06          2.2310     0.0000    -1.2200 c3         1 8V0      -0.012000
      5 C07          3.2010     1.1820    -1.1460 c3         1 8V0      -0.142000
      6 C08          4.1650     1.1130    -2.3020 c2         1 8V0       0.392000
      7 C14          2.1880     4.8530    -0.7520 c3         1 8V0      -0.442000
      8 C15          2.9920     5.9680    -0.0800 c3         1 8V0      -0.218000
      9 N03          1.7620     0.0000     1.2750 n2         1 8V0      -0.071000
     10 N05         -0.3970     0.0000     1.3100 na         1 8V0       0.346000
     11 N11          2.4470     2.4360    -1.2140 n7         1 8V0       0.133000
     12 N16          2.2360     7.2250    -0.1480 nz         1 8V0       0.851000
     13 O09          4.9670     0.0450    -2.4440 o          1 8V0      -0.605500
     14 O10          4.2190     2.0190    -3.0990 o          1 8V0      -0.605500
     15 O13          4.0520     3.5370    -0.1480 o          1 8V0      -0.441000
     16 H1          -0.6460     0.0000    -0.8700 h4         1 8V0       0.154000
     17 H2           0.7540     0.0000     3.1490 h5         1 8V0       0.155000
     18 H3           1.6200     0.0890    -2.1100 hc         1 8V0       0.083500
     19 H4           2.7930    -0.9250    -1.2580 hc         1 8V0       0.083500
     20 H5           3.7500     1.1410    -0.2140 h1         1 8V0       0.118000
     21 H6           2.5440     4.2740     0.0920 DU         1 8V0       0.194000
     22 H7           1.1160     4.8490    -0.5990 hc         1 8V0       0.120000
     23 H8           3.9400     6.0880    -0.5910 hx         1 8V0       0.125500
     24 H9           3.1710     5.7100     0.9570 hx         1 8V0       0.125500
     25 H11         -1.3400     0.0000     1.6460 hn         1 8V0       0.065000
     26 H12          1.5670     2.4660    -1.6900 hn         1 8V0       0.074000
     27 H13          1.3840     7.1310     0.3690 hn         1 8V0       0.011667
     28 H14          2.7840     7.9660     0.2430 hn         1 8V0       0.011667
     29 C12          2.9620     3.5630    -0.6820 c3         1 8V0       0.281000
     30 H163         2.0250     7.4360    -1.1040 hn         1 8V0       0.011667
@<TRIPOS>BOND
     1     1     2 1   
     2     1    10 1   
     3     1    16 1   
     4     2     4 1   
     5     2     9 1   
     6     3     9 1   
     7     3    10 1   
     8     3    17 1   
     9     4     5 1   
    10     4    18 1   
    11     4    19 1   
    12     5     6 1   
    13     5    11 1   
    14     5    20 1   
    15     6    13 1   
    16     6    14 1   
    17     7     8 1   
    18     7    21 1   
    19     7    22 1   
    20     7    29 1   
    21     8    12 1   
    22     8    23 1   
    23     8    24 1   
    24    10    25 1   
    25    11    26 1   
    26    11    29 1   
    27    12    27 1   
    28    12    28 1   
    29    12    30 1   
    30    15    29 1   
    31    21    29 1   
@<TRIPOS>SUBSTRUCTURE
     1 8V0         1 TEMP              0 ****  ****    0 ROOT
