@<TRIPOS>MOLECULE
molecule
   30    30     1     0     0
SMALL
bcc


@<TRIPOS>ATOM
      1 C01          0.0000     0.0000     0.0000 cc         1 8V0      -0.300600
      2 C02          1.3460     0.0000     0.0000 cc         1 8V0       0.328600
      3 C04          0.7230     0.0000     2.0660 cd         1 8V0       0.378400
      4 C06          2.2310     0.0000    -1.2200 c3         1 8V0      -0.093700
      5 C07          3.2010     1.1820    -1.1460 c3         1 8V0       0.002700
      6 C08          4.1650     1.1130    -2.3020 c          1 8V0       0.882600
      7 C14          2.1880     4.8530    -0.7520 c3         1 8V0      -0.408400
      8 C15          2.9920     5.9680    -0.0800 c3         1 8V0       0.138800
      9 N03          1.7620     0.0000     1.2750 nc         1 8V0      -0.683000
     10 N05         -0.3970     0.0000     1.3100 na         1 8V0      -0.308900
     11 N11          2.4470     2.4360    -1.2140 ns         1 8V0      -0.498900
     12 N16          2.2360     7.2250    -0.1480 nz         1 8V0      -0.808600
     13 O09          4.9670     0.0450    -2.4440 o          1 8V0      -0.819300
     14 O10          4.2190     2.0190    -3.0990 o          1 8V0      -0.819300
     15 O13          4.0520     3.5370    -0.1480 o          1 8V0      -0.637100
     16 H1          -0.6460     0.0000    -0.8700 h4         1 8V0       0.172000
     17 H2           0.7540     0.0000     3.1490 h5         1 8V0       0.058100
     18 H3           1.6200     0.0890    -2.1100 hc         1 8V0       0.077200
     19 H4           2.7930    -0.9250    -1.2580 hc         1 8V0       0.077200
     20 H5           3.7500     1.1410    -0.2140 h1         1 8V0       0.098700
     21 H6           2.5440     4.2740     0.0920 hc         1 8V0       0.134700
     22 H7           1.1160     4.8490    -0.5990 hc         1 8V0       0.134700
     23 H8           3.9400     6.0880    -0.5910 hx         1 8V0       0.115200
     24 H9           3.1710     5.7100     0.9570 hx         1 8V0       0.115200
     25 H11         -1.3400     0.0000     1.6460 hn         1 8V0       0.289700
     26 H12          1.5670     2.4660    -1.6900 hn         1 8V0       0.310500
     27 H13          1.3840     7.1310     0.3690 hn         1 8V0       0.449800
     28 H14          2.7840     7.9660     0.2430 hn         1 8V0       0.449800
     29 C12          2.9620     3.5630    -0.6820 c          1 8V0       0.715100
     30 H163         2.0250     7.4360    -1.1040 hn         1 8V0       0.449800
@<TRIPOS>BOND
     1    15    29 2   
     2    14     6 1   
     3    13     6 1   
     4     6     5 1   
     5     8     7 1   
     6     8    12 1   
     7    29     7 1   
     8    29    11 1   
     9     5    11 1   
    10     5     4 1   
    11     4     2 1   
    12     9     2 1   
    13     9     3 2   
    14     2     1 2   
    15     3    10 1   
    16     1    10 1   
    17     1    16 1   
    18     3    17 1   
    19     4    18 1   
    20     4    19 1   
    21     5    20 1   
    22     7    21 1   
    23     7    22 1   
    24     8    23 1   
    25     8    24 1   
    26    10    25 1   
    27    11    26 1   
    28    12    27 1   
    29    12    28 1   
    30    30    12 1   
@<TRIPOS>SUBSTRUCTURE
     1 8V0         1 TEMP              0 ****  ****    0 ROOT
