@<TRIPOS>MOLECULE
molecule
   56    60     1     0     0
SMALL
bcc


@<TRIPOS>ATOM
      1 O1           0.0000     0.0000     0.0000 o          1 8V1      -0.562100
      2 C15          1.2130     0.0000     0.0000 c          1 8V1       0.660100
      3 C16          1.9660     0.0000     1.3050 c3         1 8V1       0.087500
      4 N2           1.0790     0.4400     2.3970 n7         1 8V1      -0.778200
      5 C19          0.9570    -0.6600     3.3770 c3         1 8V1       0.153800
      6 C18          2.2370    -1.5100     3.1800 c3         1 8V1      -0.119400
      7 C17          2.4300    -1.4320     1.6420 c3         1 8V1      -0.091400
      8 N1           1.8870    -0.0040    -1.1670 ns         1 8V1      -0.483100
      9 C12          1.1890    -0.0970    -2.3780 ca         1 8V1       0.019600
     10 C11         -0.0500     0.5170    -2.5150 ca         1 8V1      -0.111500
     11 C10         -0.7370     0.4260    -3.7090 ca         1 8V1      -0.168000
     12 C13          1.7380    -0.7960    -3.4450 ca         1 8V1      -0.111500
     13 C14          1.0500    -0.8850    -4.6390 ca         1 8V1      -0.168000
     14 C9          -0.1900    -0.2770    -4.7730 ca         1 8V1       0.121100
     15 O           -0.8680    -0.3660    -5.9480 os         1 8V1      -0.245200
     16 C7          -0.3530    -1.1650    -6.9220 ca         1 8V1       0.071100
     17 C6           0.1220    -0.5990    -8.1030 ca         1 8V1      -0.114000
     18 C5           0.6450    -1.3920    -9.0980 ca         1 8V1      -0.134000
     19 C4           0.7020    -2.7730    -8.9300 ca         1 8V1      -0.041200
     20 N            1.1590    -3.8030    -9.7270 na         1 8V1      -0.074400
     21 C            1.7410    -3.6370   -11.0610 c3         1 8V1       0.041600
     22 C8          -0.3000    -2.5320    -6.7350 ca         1 8V1      -0.102000
     23 C3           0.2240    -3.3450    -7.7400 ca         1 8V1      -0.083800
     24 C2           0.4240    -4.7960    -7.8760 cc         1 8V1      -0.057400
     25 C1           0.9870    -5.0010    -9.0890 cd         1 8V1      -0.094100
     26 C20          0.0750    -5.8360    -6.8740 cc         1 8V1      -0.240100
     27 C22         -0.6370    -6.9750    -7.1100 cd         1 8V1      -0.108300
     28 N4          -0.7330    -7.6460    -5.9420 na         1 8V1       0.062400
     29 C23         -1.4160    -8.9260    -5.7400 c3         1 8V1       0.064600
     30 N3          -0.0650    -6.9070    -4.9580 nd         1 8V1      -0.514800
     31 C21          0.4240    -5.8270    -5.5100 cc         1 8V1       0.347200
     32 H16          2.8240     0.6580     1.2420 h1         1 8V1       0.045700
     33 H1           2.8840     0.0820    -1.1690 hn         1 8V1       0.317500
     34 H2           1.4740     1.2440     2.8440 hn         1 8V1       0.351800
     35 H171         3.4740    -1.5660     1.3820 hc         1 8V1       0.058700
     36 H172         1.8070    -2.1630     1.1420 hc         1 8V1       0.058700
     37 H191         0.0750    -1.2540     3.1670 h1         1 8V1       0.059200
     38 H192         0.9200    -0.2630     4.3840 h1         1 8V1       0.059200
     39 H181         2.0730    -2.5330     3.4970 hc         1 8V1       0.051700
     40 H182         3.0780    -1.0650     3.6980 hc         1 8V1       0.051700
     41 H11         -0.4770     1.0660    -1.6840 ha         1 8V1       0.150000
     42 H13          2.7060    -1.2710    -3.3410 ha         1 8V1       0.150000
     43 H10         -1.7040     0.9030    -3.8150 ha         1 8V1       0.148000
     44 H14          1.4770    -1.4320    -5.4710 ha         1 8V1       0.148000
     45 H6           0.0770     0.4750    -8.2410 ha         1 8V1       0.144000
     46 H8          -0.7690    -2.9780    -5.8660 ha         1 8V1       0.153000
     47 H5           1.0120    -0.9430   -10.0130 ha         1 8V1       0.130000
     48 HC1          2.0510    -4.6030   -11.4420 h1         1 8V1       0.048367
     49 HC2          1.0030    -3.2070   -11.7260 h1         1 8V1       0.048367
     50 HC3          2.6000    -2.9800   -11.0010 h1         1 8V1       0.048367
     51 HA           1.2610    -5.9670    -9.4940 h4         1 8V1       0.167000
     52 H22         -0.9590    -7.3350    -8.0800 h4         1 8V1       0.169000
     53 H21          0.9930    -5.0570    -5.0040 h4         1 8V1       0.053100
     54 H231        -2.4620    -8.8230    -6.0040 h1         1 8V1       0.054033
     55 H232        -0.9590    -9.6830    -6.3660 h1         1 8V1       0.054033
     56 H233        -1.3330    -9.2200    -4.7000 h1         1 8V1       0.054033
@<TRIPOS>BOND
     1     1     2 2
     2     2     3 1
     3     2     8 1
     4     3     4 1
     5     3     7 1
     6     4     5 1
     7     5     6 1
     8     6     7 1
     9     8     9 1
    10     9    10 ar
    11     9    12 ar
    12    10    11 ar
    13    11    14 ar
    14    12    13 ar
    15    13    14 ar
    16    14    15 1
    17    15    16 1
    18    16    17 ar
    19    16    22 ar
    20    17    18 ar
    21    18    19 ar
    22    19    20 1
    23    19    23 ar
    24    20    21 1
    25    20    25 1
    26    22    23 ar
    27    23    24 1
    28    24    25 2
    29    24    26 1
    30    26    27 2
    31    26    31 1
    32    27    28 1
    33    28    29 1
    34    28    30 1
    35    30    31 2
    36     3    32 1
    37     8    33 1
    38     4    34 1
    39     7    35 1
    40     7    36 1
    41     5    37 1
    42     5    38 1
    43     6    39 1
    44     6    40 1
    45    10    41 1
    46    12    42 1
    47    11    43 1
    48    13    44 1
    49    17    45 1
    50    22    46 1
    51    18    47 1
    52    21    48 1
    53    21    49 1
    54    21    50 1
    55    25    51 1
    56    27    52 1
    57    31    53 1
    58    29    54 1
    59    29    55 1
    60    29    56 1
@<TRIPOS>SUBSTRUCTURE
     1 8V1         1 TEMP              0 ****  ****    0 ROOT
