@<TRIPOS>MOLECULE
molecule
   33    33     1     0     0
SMALL
bcc


@<TRIPOS>ATOM
      1 C11          0.0000     0.0000     0.0000 c3         1 8V3      -0.005100
      2 C12          1.5070     0.0000     0.0000 cc         1 8V3      -0.208900
      3 C13          2.3100     0.0000     1.0810 cd         1 8V3       0.276200
      4 C15          3.5970    -0.0030    -0.6510 cc         1 8V3       0.378400
      5 C02         -2.0110     1.4500     0.0010 c          1 8V3       0.883600
      6 C04         -0.5090     1.4370     0.1250 c3         1 8V3       0.003700
      7 C08          0.4040     3.8740     2.9320 c3         1 8V3      -0.209400
      8 C09          0.4760     5.4000     2.8460 c3         1 8V3       0.023800
      9 N05         -0.1220     1.9820     1.4280 ns         1 8V3      -0.502900
     10 N10          0.8650     5.9460     4.1520 nz         1 8V3      -0.783600
     11 N14          3.5810    -0.0020     0.6540 nd         1 8V3      -0.713000
     12 N16          2.3230    -0.0070    -1.0990 na         1 8V3      -0.178900
     13 O07         -0.2010     4.0620     0.6580 o          1 8V3      -0.620100
     14 H1          -0.3610    -0.4320    -0.9250 hc         1 8V3       0.077700
     15 H2          -0.3610    -0.5850     0.8370 hc         1 8V3       0.077700
     16 H3           1.9860     0.0020     2.1150 h4         1 8V3       0.022100
     17 H4           4.4850    -0.0060    -1.2710 h5         1 8V3       0.058100
     18 H5          -0.0770     2.0430    -0.6620 h1         1 8V3       0.079700
     19 H6           1.3740     3.4820     3.2140 hc         1 8V3       0.069200
     20 H7          -0.3310     3.5880     3.6750 hc         1 8V3       0.069200
     21 H8          -0.5370     5.7520     2.6940 hx         1 8V3       0.161200
     22 H9           0.9220     5.3910     1.8590 hx         1 8V3       0.161200
     23 H10          1.3500     0.9020    -2.7140 h1         1 8V3       0.058367
     24 H11          2.7640    -0.0720    -3.1440 h1         1 8V3       0.058367
     25 H12          1.2520    -0.8640    -2.6800 h1         1 8V3       0.058367
     26 H13          0.0250     1.3670     2.2040 hn         1 8V3       0.306500
     27 H14          0.2020     5.6600     4.8450 hn         1 8V3       0.449467
     28 H15          1.7730     5.6050     4.4000 hn         1 8V3       0.449467
     29 C06          0.0050     3.3140     1.5910 c          1 8V3       0.665100
     30 C17          1.8940    -0.0110    -2.5010 c3         1 8V3       0.029600
     31 O01         -2.5970     0.9940    -1.1170 o          1 8V3      -0.822800
     32 H103         0.8870     6.9450     4.1030 hn         1 8V3       0.449467
     33 O03         -2.6880     1.8710     0.9090 o          1 8V3      -0.822800
@<TRIPOS>BOND
     1     4    11 2
     2     4    12 1
     3    11     3 1
     4    33     5 1
     5    31     5 1
     6    12    30 1
     7    12     2 1
     8     3     2 2
     9     5     6 1
    10     2     1 1
    11     6     1 1
    12     6     9 1
    13     9    29 1
    14    13    29 2
    15    29     7 1
    16     7     8 1
    17     8    10 1
    18     1    14 1
    19     1    15 1
    20     3    16 1
    21     4    17 1
    22     6    18 1
    23     7    19 1
    24     7    20 1
    25     8    21 1
    26     8    22 1
    27    30    23 1
    28    30    24 1
    29    30    25 1
    30     9    26 1
    31    10    27 1
    32    10    28 1
    33    32    10 1
@<TRIPOS>SUBSTRUCTURE
     1 8V3         1 TEMP              0 ****  ****    0 ROOT
