@<TRIPOS>MOLECULE
molecule
   58    59     1     0     0
SMALL
bcc


@<TRIPOS>ATOM
      1 C1           0.0000     0.0000     0.0000 c          1 8V6       0.844800
      2 C2           1.4180     0.0000     0.0000 ce         1 8V6      -0.053200
      3 C3           2.0940     0.0000     1.1720 ce         1 8V6      -0.252200
      4 C4           1.3760     0.2040     2.4300 ce         1 8V6      -0.049000
      5 C5           2.0210     0.0850     3.5930 c2         1 8V6      -0.415200
      6 C6           3.5860    -0.2110     1.1810 c3         1 8V6      -0.096900
      7 O11         -0.6080    -0.1240     1.0460 o          1 8V6      -0.804800
      8 O12         -0.6740     0.1420    -1.1610 o          1 8V6      -0.804800
      9 C1'          1.2820     0.2960     4.8890 c3         1 8V6       0.230200
     10 C6'          1.9240     1.4540     5.6560 c3         1 8V6      -0.032000
     11 C9'          2.0990     2.6530     4.7230 c3         1 8V6      -0.098100
     12 C5'          3.2940     0.9940     6.1700 c3         1 8V6      -0.389400
     13 C8'          1.0320     1.8460     6.8360 c3         1 8V6      -0.098100
     14 O1          -0.0840     0.6110     4.6090 oh         1 8V6      -0.570800
     15 C2'          1.3440    -0.9610     5.7080 c2         1 8V6      -0.014400
     16 C7'          0.4390    -2.1010     5.3220 c3         1 8V6      -0.093900
     17 C3'          2.1290    -1.1260     6.7240 c2         1 8V6      -0.282200
     18 C4'          3.0760    -0.0840     7.2330 c3         1 8V6       0.128300
     19 O4'          4.3270    -0.6980     7.5520 os         1 8V6      -0.405600
     20 CA1          4.4190    -1.1620     8.9000 c3         1 8V6       0.007500
     21 CA2          5.7410    -1.7730     9.1190 c1         1 8V6      -0.059100
     22 CA3          6.7960    -2.2500     9.3120 cg         1 8V6      -0.184000
     23 CA4          8.0470    -3.0920     9.6640 ca         1 8V6       0.057000
     24 CA5          8.0170    -3.8780    10.5600 ca         1 8V6      -0.107500
     25 CA6          9.4930    -4.5400    10.6030 ca         1 8V6      -0.157500
     26 CA7         10.5000    -4.3590     9.9220 ca         1 8V6      -0.004300
     27 CA0         11.5760    -5.0240     9.9060 c3         1 8V6      -0.070800
     28 CA8         10.1810    -3.4000     8.9970 ca         1 8V6      -0.157500
     29 CA9          9.1230    -2.6020     8.6030 ca         1 8V6      -0.107500
     30 H1           1.9390     0.9170    -0.2470 ha         1 8V6       0.125000
     31 H2           1.7980    -0.0390     3.3980 ha         1 8V6       0.284000
     32 H3           3.0160    -0.0670     3.9940 ha         1 8V6       0.105000
     33 H4           3.9730    -0.5880     2.1200 hc         1 8V6       0.043033
     34 H5           3.7730     0.7760     0.7760 hc         1 8V6       0.043033
     35 H6           3.8000    -0.8600     0.3410 hc         1 8V6       0.043033
     36 H8           2.6270     3.2130     5.4850 hc         1 8V6       0.050700
     37 H9           1.0510     2.8240     4.5130 hc         1 8V6       0.050700
     38 H10          2.7680     2.0920     4.0820 hc         1 8V6       0.050700
     39 H11          3.7240     1.7960     6.7580 hc         1 8V6       0.155200
     40 H12          3.4620     0.2130     6.9020 hc         1 8V6       0.155200
     41 H13          0.7230     2.8830     6.7960 hc         1 8V6       0.050700
     42 H14          0.3070     1.0440     6.9020 hc         1 8V6       0.050700
     43 H15          1.3340     1.5340     7.8280 hc         1 8V6       0.050700
     44 H16         -0.6110    -0.1650     4.5140 ho         1 8V6       0.416000
     45 H17         -0.5240    -1.6270     5.1760 hc         1 8V6       0.066700
     46 H18          0.3260    -2.8650     6.0820 hc         1 8V6       0.066700
     47 H19          0.5510    -2.2130     4.2500 hc         1 8V6       0.066700
     48 H20          2.1250    -1.1970     7.8050 ha         1 8V6       0.149000
     49 H21          2.6590     0.3720     8.1230 h1         1 8V6       0.033700
     50 H22          3.4180    -1.3400     9.2730 h1         1 8V6       0.131700
     51 H23          4.8470    -2.1120     8.6030 h1         1 8V6       0.131700
     52 H24          7.2380    -4.3960    11.1060 ha         1 8V6       0.185000
     53 H25          9.4260    -5.4100    11.2440 ha         1 8V6       0.092500
     54 H26         11.6230    -6.0770     9.6560 hc         1 8V6       0.056367
     55 H27         11.8670    -4.9750    10.9480 hc         1 8V6       0.056367
     56 H28         12.3310    -4.2970     9.6290 hc         1 8V6       0.056367
     57 H29         10.8630    -3.0810     8.2180 ha         1 8V6       0.092500
     58 H30          8.8760    -1.9900     7.7440 ha         1 8V6       0.185000
@<TRIPOS>BOND
     1    24    25 ar
     2    24    23 ar
     3    25    26 ar
     4    20    21 1
     5    20    19 1
     6    21    22 3
     7    22    23 1
     8    23    29 ar
     9    26    27 1
    10    26    28 ar
    11    29    28 ar
    12    17    18 1
    13    17    15 2
    14    19    18 1
    15    18    12 1
    16    16    15 1
    17    15     9 1
    18    13    10 1
    19    12    10 1
    20    10     9 1
    21    10    11 1
    22     9    14 1
    23     9     5 1
    24     5     4 2
    25     4     3 1
    26     6     3 1
    27     3     2 2
    28     7     1 1
    29     2     1 1
    30     1     8 1
    31     2    30 1
    32     4    31 1
    33     5    32 1
    34     6    33 1
    35     6    34 1
    36     6    35 1
    37    11    36 1
    38    11    37 1
    39    11    38 1
    40    12    39 1
    41    12    40 1
    42    13    41 1
    43    13    42 1
    44    13    43 1
    45    14    44 1
    46    16    45 1
    47    16    46 1
    48    16    47 1
    49    17    48 1
    50    18    49 1
    51    20    50 1
    52    20    51 1
    53    24    52 1
    54    25    53 1
    55    27    54 1
    56    27    55 1
    57    27    56 1
    58    28    57 1
    59    29    58 1
@<TRIPOS>SUBSTRUCTURE
     1 8V6         1 TEMP              0 ****  ****    0 ROOT
