@<TRIPOS>MOLECULE
8V7
   36    38     1     0     0
SMALL
bcc


@<TRIPOS>ATOM
      1 C5           0.0000     0.0000     0.0000 cc         1 8V7       0.206400
      2 C8           1.7290     0.0000     1.3170 cc         1 8V7       0.133500
      3 C17          7.9270    -0.2760    -0.8890 ca         1 8V7       0.360200
      4 C20         10.3520    -0.2360    -2.1250 ca         1 8V7      -0.255300
      5 C21         10.2300    -0.2280    -0.7500 ca         1 8V7       0.434200
      6 C1           1.8840    -1.1840    -2.0740 c3         1 8V7      -0.006100
      7 C2           2.2370    -0.0010    -1.1690 c3         1 8V7      -0.096000
      8 C3           2.0580     1.3060    -1.9440 c3         1 8V7      -0.006100
      9 N4           1.3540     0.0000     0.0000 na         1 8V7       0.178300
     10 N6          -0.3960     0.0060     1.2450 nd         1 8V7      -0.326000
     11 N7           0.6220     0.0090     2.0300 nd         1 8V7      -0.304000
     12 C9           3.1080    -0.0010     1.8390 cc         1 8V7       0.441400
     13 N10          4.1820    -0.0950     1.1140 nd         1 8V7      -0.589000
     14 C11          5.3290    -0.0770     1.7750 cd         1 8V7       0.247800
     15 C12          5.2110     0.0390     3.1290 cc         1 8V7      -0.057400
     16 S13          3.5530     0.1340     3.5360 ss         1 8V7      -0.197300
     17 C14          6.6350    -0.1750     1.1000 c          1 8V7       0.479600
     18 O15          7.6610    -0.1550     1.7540 o          1 8V7      -0.570100
     19 N16          6.6940    -0.2890    -0.2410 ns         1 8V7      -0.100400
     20 C18          7.9750    -0.2860    -2.2790 ca         1 8V7      -0.270300
     21 C19          9.2070    -0.2670    -2.9090 ca         1 8V7      -0.039000
     22 N22          9.0410    -0.2470    -0.1760 nb         1 8V7      -0.558000
     23 H1          -0.6390    -0.0020    -0.8740 h5         1 8V7       0.035100
     24 H2          11.3320    -0.2200    -2.5870 ha         1 8V7       0.115000
     25 H3          11.1200    -0.2050    -0.1340 h4         1 8V7      -0.017900
     26 H4           1.8860    -2.0970    -1.4920 hc         1 8V7       0.016700
     27 H5           0.9000    -1.0300    -2.5010 hc         1 8V7       0.016700
     28 H6           2.6150    -1.2600    -2.8700 hc         1 8V7       0.016700
     29 H7           3.2670    -0.0900    -0.8440 h1         1 8V7       0.084700
     30 H8           1.0670     1.3350    -2.3790 hc         1 8V7       0.016700
     31 H9           2.1830     2.1450    -1.2710 hc         1 8V7       0.016700
     32 H10          2.8000     1.3630    -2.7320 hc         1 8V7       0.016700
     33 H11          6.0340     0.0710     3.8320 h4         1 8V7       0.181000
     34 H12          5.8520    -0.4120    -0.7700 hn         1 8V7       0.178500
     35 H13          7.0610    -0.3100    -2.8600 ha         1 8V7       0.112000
     36 H14          9.2760    -0.2740    -3.9910 ha         1 8V7       0.106000
@<TRIPOS>BOND
     1     1     9 1   
     2     1    10 2   
     3     1    23 1   
     4     2     9 1   
     5     2    11 2   
     6     2    12 1   
     7     3    19 1   
     8     3    20 ar  
     9     3    22 ar  
    10     4     5 ar  
    11     4    21 ar  
    12     4    24 1   
    13     5    22 ar  
    14     5    25 1   
    15     6     7 1   
    16     6    26 1   
    17     6    27 1   
    18     6    28 1   
    19     7     8 1   
    20     7     9 1   
    21     7    29 1   
    22     8    30 1   
    23     8    31 1   
    24     8    32 1   
    25    10    11 1   
    26    12    13 2   
    27    12    16 1   
    28    13    14 1   
    29    14    15 2   
    30    14    17 1   
    31    15    16 1   
    32    15    33 1   
    33    17    18 2   
    34    17    19 1   
    35    19    34 1   
    36    20    21 ar  
    37    20    35 1   
    38    21    36 1   
@<TRIPOS>SUBSTRUCTURE
     1 8V7         1 TEMP              0 ****  ****    0 ROOT
