@<TRIPOS>MOLECULE
molecule
   45    47     1     0     0
SMALL
bcc


@<TRIPOS>ATOM
      1 OAA          0.0000     0.0000     0.0000 o          1 8VB      -0.871550
      2 CAU          1.2080     0.0000     0.0000 c          1 8VB       0.913100
      3 OAE          1.8790     0.0000     1.1620 o          1 8VB      -0.871550
      4 CBE          1.9610    -0.0080    -1.3060 c3         1 8VB      -0.261700
      5 CAV          0.9810    -0.0140    -2.4510 c          1 8VB       0.913100
      6 OAF          0.9870     0.8880    -3.2550 o          1 8VB      -0.871550
      7 OAB          0.1040    -1.0210    -2.5770 o          1 8VB      -0.871550
      8 CAR          2.8410     1.2410    -1.3940 c3         1 8VB      -0.005100
      9 CAZ          3.8990     1.1870    -0.3220 ca         1 8VB      -0.010300
     10 CAP          5.1170     0.5920    -0.5860 ca         1 8VB      -0.124000
     11 CAK          3.6510     1.7380     0.9220 ca         1 8VB      -0.016000
     12 CAH          4.6200     1.6900     1.9080 ca         1 8VB      -0.149000
     13 CAL          5.8390     1.0920     1.6520 ca         1 8VB      -0.181000
     14 CBA          6.0930     0.5420     0.4020 ca         1 8VB      -0.016400
     15 NAS          7.3240    -0.0650     0.1400 ns         1 8VB      -0.444100
     16 CAW          7.8900     0.0560    -1.0760 c          1 8VB       0.672700
     17 OAC          7.3740     0.7650    -1.9190 o          1 8VB      -0.567100
     18 CBC          9.1330    -0.6690    -1.3850 cc         1 8VB      -0.035700
     19 SAT          9.9910    -1.7270    -0.2740 ss         1 8VB      -0.116800
     20 CAN          9.7910    -0.6280    -2.5830 cd         1 8VB      -0.133000
     21 CAO         10.9280    -1.3850    -2.6380 cd         1 8VB      -0.078000
     22 CBD         11.2200    -2.0630    -1.4860 cc         1 8VB      -0.155700
     23 CAX         12.3810    -2.9430    -1.2920 c          1 8VB       0.625300
     24 OAD         13.1040    -3.2100    -2.2330 o          1 8VB      -0.534100
     25 CBB         12.6690    -3.5030     0.0450 ca         1 8VB      -0.160600
     26 CAQ         13.3320    -4.7270     0.1650 ca         1 8VB      -0.047000
     27 CAY         13.5970    -5.2430     1.4160 ca         1 8VB       0.042900
     28 IAG         14.5920    -7.0780     1.6000 i          1 8VB      -0.181900
     29 CAJ         13.2090    -4.5520     2.5500 ca         1 8VB      -0.082000
     30 CAI         12.5520    -3.3390     2.4390 ca         1 8VB      -0.135000
     31 CAM         12.2850    -2.8080     1.1940 ca         1 8VB      -0.082000
     32 H2           2.5840    -0.8930    -1.3580 hc         1 8VB       0.035700
     33 H4           2.2290     2.1240    -1.2520 hc         1 8VB       0.040200
     34 H5           3.3140     1.2820    -2.3670 hc         1 8VB       0.040200
     35 H6           5.3110     0.1640    -1.5620 ha         1 8VB       0.142000
     36 H7           2.6960     2.2070     1.1240 ha         1 8VB       0.158000
     37 H8           4.4220     2.1210     2.8820 ha         1 8VB       0.103000
     38 H9           6.5970     1.0550     2.4250 ha         1 8VB       0.084000
     39 H10          7.7810    -0.5970     0.8540 hn         1 8VB       0.300500
     40 H12          9.4410    -0.0390    -3.4220 ha         1 8VB       0.179000
     41 H14         11.5490    -1.4440    -3.5240 ha         1 8VB       0.160000
     42 H15         13.6980    -5.2340    -0.7190 ha         1 8VB       0.159000
     43 H16         13.4190    -4.9640     3.5300 ha         1 8VB       0.138000
     44 H17         12.2530    -2.8020     3.3310 ha         1 8VB       0.142000
     45 H18         11.7710    -1.8590     1.1070 ha         1 8VB       0.156000
@<TRIPOS>BOND
     1    12    11 ar
     2    12    13 ar
     3    11     9 ar
     4    13    14 ar
     5    17    16 2
     6     9     8 1
     7     9    10 ar
     8    14    10 ar
     9    14    15 1
    10     8     4 1
    11    16    15 1
    12    16    18 1
    13     6     5 1
    14     4     5 1
    15     4     2 1
    16     5     7 1
    17    20    18 2
    18    20    21 1
    19    18    19 1
    20     1     2 1
    21     2     3 1
    22    21    22 2
    23    19    22 1
    24    22    23 1
    25    23    24 2
    26    23    25 1
    27    25    26 ar
    28    25    31 ar
    29    26    27 ar
    30    28    27 1
    31    31    30 ar
    32    27    29 ar
    33    30    29 ar
    34     4    32 1
    35     8    33 1
    36     8    34 1
    37    10    35 1
    38    11    36 1
    39    12    37 1
    40    13    38 1
    41    15    39 1
    42    20    40 1
    43    21    41 1
    44    26    42 1
    45    29    43 1
    46    30    44 1
    47    31    45 1
@<TRIPOS>SUBSTRUCTURE
     1 8VB         1 TEMP              0 ****  ****    0 ROOT
