@<TRIPOS>MOLECULE
8VE
   24    25     1     0     0
SMALL
bcc


@<TRIPOS>ATOM
      1 N1           0.0000     0.0000     0.0000 nh         1 8VE      -0.265700
      2 N3          -0.6370    -1.7750     3.0060 n7         1 8VE      -0.605200
      3 C4           0.7810    -0.0050     2.2280 c3         1 8VE      -0.103000
      4 C5           0.7910    -1.3710     2.9450 c3         1 8VE       0.036500
      5 C6          -0.8330     0.0080    -1.2050 c3         1 8VE       0.276100
      6 C8           1.3550    -1.2250     4.3340 c          1 8VE       0.973600
      7 C1           1.8550     0.0000     1.1580 ce         1 8VE       0.281300
      8 N2           1.2760     0.0000     0.0000 n2         1 8VE      -0.477400
      9 C2          -1.1830    -1.3640     1.6640 c3         1 8VE       0.117800
     10 C3          -0.5200    -0.0010     1.3760 c3         1 8VE       0.063500
     11 O1           4.1510     0.0090     0.3500 o          1 8VE      -0.864800
     12 O2           0.6110    -1.0980     5.2780 o          1 8VE      -0.887300
     13 O3           3.7270     0.0050     2.5320 o          1 8VE      -0.864800
     14 O4           2.6840    -1.2350     4.5240 o          1 8VE      -0.887300
     15 H6          -1.1000    -1.2590     3.7270 hn         1 8VE       0.271800
     16 H5           0.8480     0.8370     2.9060 hc         1 8VE       0.055700
     17 H3           1.3610    -2.0920     2.3730 h1         1 8VE       0.055700
     18 H8          -0.8800    -0.9930    -1.6180 h1         1 8VE      -0.022967
     19 H7          -0.4030     0.6800    -1.9370 h1         1 8VE      -0.022967
     20 H9          -1.8320     0.3410    -0.9520 h1         1 8VE      -0.022967
     21 H2          -2.2600    -1.2550     1.7130 h1         1 8VE      -0.001300
     22 H1          -0.9040    -2.0860     0.9060 h1         1 8VE      -0.001300
     23 H4          -1.1630     0.8440     1.5900 h1         1 8VE       0.008700
     24 C7           3.2970     0.0040     1.3940 c          1 8VE       0.887300
@<TRIPOS>BOND
     1     1     5 1   
     2     1     8 1   
     3     1    10 1   
     4     2     4 1   
     5     2     9 1   
     6     2    15 1   
     7     3     4 1   
     8     3     7 1   
     9     3    10 1   
    10     3    16 1   
    11     4     6 1   
    12     4    17 1   
    13     5    18 1   
    14     5    19 1   
    15     5    20 1   
    16     6    12 1   
    17     6    14 1   
    18     7     8 2   
    19     7    24 1   
    20     9    10 1   
    21     9    21 1   
    22     9    22 1   
    23    10    23 1   
    24    11    24 1   
    25    13    24 1   
@<TRIPOS>SUBSTRUCTURE
     1 8VE         1 TEMP              0 ****  ****    0 ROOT
