@<TRIPOS>MOLECULE
molecule
   18    18     1     0     0
SMALL
bcc


@<TRIPOS>ATOM
      1 C01          0.0000     0.0000     0.0000 ca         1 8VH      -0.079300
      2 C02          1.3820     0.0000     0.0000 ca         1 8VH      -0.129000
      3 C03          2.0730     0.0000     1.1970 ca         1 8VH      -0.079300
      4 C04          1.3820    -0.0010     2.3940 ca         1 8VH      -0.133000
      5 C05          0.0000    -0.0010     2.3940 ca         1 8VH      -0.122000
      6 C06         -0.6910    -0.0010     1.1970 ca         1 8VH      -0.133000
      7 C07          3.5800    -0.0000     1.1970 c3         1 8VH      -0.047800
      8 C08         -0.7540     0.0060    -1.3050 c3         1 8VH      -0.047800
      9 H1           1.9240     0.0010    -0.9380 ha         1 8VH       0.130000
     10 H2           1.9240    -0.0010     3.3320 ha         1 8VH       0.128000
     11 H3          -0.5410    -0.0020     3.3320 ha         1 8VH       0.128000
     12 H4          -1.7740    -0.0010     1.1970 ha         1 8VH       0.128000
     13 H5           3.9410     0.2180     2.1950 hc         1 8VH       0.042533
     14 H6           3.9410     0.7550     0.5090 hc         1 8VH       0.042533
     15 H7           3.9410    -0.9730     0.8880 hc         1 8VH       0.042533
     16 H8          -1.7930    -0.2400    -1.1220 hc         1 8VH       0.042533
     17 H9          -0.6890     0.9900    -1.7540 hc         1 8VH       0.042533
     18 H10         -0.3210    -0.7270    -1.9750 hc         1 8VH       0.042533
@<TRIPOS>BOND
     1     8     1 1   
     2     6     1 ar  
     3     6     5 ar  
     4     1     2 ar  
     5     5     4 ar  
     6     2     3 ar  
     7     4     3 ar  
     8     3     7 1   
     9     2     9 1   
    10     4    10 1   
    11     5    11 1   
    12     6    12 1   
    13     7    13 1   
    14     7    14 1   
    15     7    15 1   
    16     8    16 1   
    17     8    17 1   
    18     8    18 1   
@<TRIPOS>SUBSTRUCTURE
     1 8VH         1 TEMP              0 ****  ****    0 ROOT
