@<TRIPOS>MOLECULE
8VI
   63    66     1     0     0
SMALL
bcc


@<TRIPOS>ATOM
      1 C01          0.0000     0.0000     0.0000 c3         1 8VI      -0.022100
      2 C05          1.5300     0.0000     0.0000 c3         1 8VI       0.000000
      3 N08          2.0190     0.0000     1.3810 n          1 8VI      -0.010000
      4 C09          2.1320    -1.1620     2.0550 c          1 8VI       0.616700
      5 O10          2.4330    -1.1530     3.2330 o          1 8VI      -0.628100
      6 C11          1.8880    -2.4420     1.3660 ca         1 8VI      -0.184600
      7 C12          2.5780    -2.7490     0.1900 ca         1 8VI      -0.046000
      8 C14          2.3470    -3.9480    -0.4490 ca         1 8VI      -0.156000
      9 C16          1.4320    -4.8500     0.0670 ca         1 8VI      -0.039000
     10 C18          0.7430    -4.5590     1.2270 ca         1 8VI      -0.221000
     11 C20          0.9680    -3.3600     1.8880 ca         1 8VI       0.200100
     12 O21          0.2950    -3.0760     3.0310 os         1 8VI      -0.284900
     13 C22         -0.6260    -4.0600     3.5040 c3         1 8VI       0.240700
     14 C26          2.3710     1.2070     2.0000 ca         1 8VI      -0.045400
     15 C27          1.4190     1.9270     2.7040 ca         1 8VI      -0.065000
     16 C29          1.7680     3.1210     3.3160 ca         1 8VI      -0.146400
     17 N30          1.0560     4.0490     4.0750 n          1 8VI       0.047000
     18 C31         -0.3630     3.9570     4.4320 c3         1 8VI       0.085300
     19 C35          1.8940     5.0430     4.4270 c          1 8VI       0.582500
     20 O36          1.5890     6.0140     5.0950 o          1 8VI      -0.720500
     21 N37          3.1190     4.8000     3.9280 n          1 8VI       0.047000
     22 C38          4.2980     5.6540     4.0970 c3         1 8VI       0.084300
     23 C42          3.0780     3.5980     3.2230 ca         1 8VI      -0.132400
     24 C43          4.0300     2.8770     2.5180 ca         1 8VI      -0.118000
     25 C45          3.6810     1.6810     1.9110 ca         1 8VI       0.029600
     26 N46          4.6430     0.9490     1.2030 nh         1 8VI      -0.403000
     27 C47          5.7100     0.4780     2.0970 c3         1 8VI       0.145800
     28 C50          6.6960    -0.3810     1.3020 c3         1 8VI       0.144800
     29 N53          7.2510     0.4110     0.1960 n7         1 8VI      -0.586200
     30 C55          6.1840     0.8810    -0.6990 c3         1 8VI       0.147800
     31 C58          5.1980     1.7410     0.0960 c3         1 8VI       0.120500
     32 C60          4.0640     2.1980    -0.8230 c3         1 8VI      -0.014100
     33 H011        -0.3610     0.9900    -0.2520 hc         1 8VI       0.009700
     34 H012        -0.3610    -0.7130    -0.7320 hc         1 8VI       0.009700
     35 H013        -0.3610    -0.2770     0.9830 hc         1 8VI       0.009700
     36 H051         1.8910     0.8840    -0.5110 h1         1 8VI       0.041200
     37 H052         1.8910    -0.8840    -0.5110 h1         1 8VI       0.041200
     38 H12          3.2950    -2.0460    -0.2170 ha         1 8VI       0.116000
     39 H14          2.8820    -4.1850    -1.3610 ha         1 8VI       0.107000
     40 H16          1.2540    -5.7880    -0.4440 ha         1 8VI       0.100000
     41 H18          0.0300    -5.2710     1.6260 ha         1 8VI       0.124000
     42 H221        -0.0980    -4.9860     3.6990 h1         1 8VI      -0.001300
     43 H222        -1.0900    -3.7100     4.4190 h1         1 8VI      -0.001300
     44 H223        -1.3890    -4.2300     2.7550 h1         1 8VI      -0.001300
     45 H27          0.4210     1.5240     2.8320 ha         1 8VI       0.118000
     46 H311        -0.9610     3.9310     3.5290 h1         1 8VI       0.020033
     47 H312        -0.6420     4.8200     5.0250 h1         1 8VI       0.020033
     48 H313        -0.5330     3.0540     5.0050 h1         1 8VI       0.020033
     49 H381         4.6410     5.9930     3.1260 h1         1 8VI       0.019700
     50 H382         4.0390     6.5110     4.7070 h1         1 8VI       0.019700
     51 H383         5.0860     5.0900     4.5810 h1         1 8VI       0.019700
     52 H43          5.0470     3.2440     2.4480 ha         1 8VI       0.120000
     53 H471         5.2770    -0.1150     2.8940 h1         1 8VI       0.026700
     54 H472         6.2310     1.3300     2.5160 h1         1 8VI       0.026700
     55 H58          5.7160     2.6040     0.4960 h1         1 8VI       0.024700
     56 H501         6.1800    -1.2460     0.9030 h1         1 8VI       0.012700
     57 H502         7.5000    -0.7030     1.9540 h1         1 8VI       0.012700
     58 H53          7.8990    -0.1480    -0.3230 hn         1 8VI       0.253800
     59 H551         6.6170     1.4730    -1.4960 h1         1 8VI       0.011700
     60 H552         5.6630     0.0280    -1.1170 h1         1 8VI       0.011700
     61 H601         3.6510     1.3410    -1.3400 hc         1 8VI       0.013033
     62 H602         4.4490     2.9060    -1.5470 hc         1 8VI       0.013033
     63 H603         3.2890     2.6710    -0.2320 hc         1 8VI       0.013033
@<TRIPOS>BOND
     1     1     2 1   
     2     1    33 1   
     3     1    34 1   
     4     1    35 1   
     5     2     3 1   
     6     2    36 1   
     7     2    37 1   
     8     3     4 1   
     9     3    14 1   
    10     4     5 2   
    11     4     6 1   
    12     6     7 ar  
    13     6    11 ar  
    14     7     8 ar  
    15     7    38 1   
    16     8     9 ar  
    17     8    39 1   
    18     9    10 ar  
    19     9    40 1   
    20    10    11 ar  
    21    10    41 1   
    22    11    12 1   
    23    12    13 1   
    24    13    42 1   
    25    13    43 1   
    26    13    44 1   
    27    14    15 ar  
    28    14    25 ar  
    29    15    16 ar  
    30    15    45 1   
    31    16    17 1   
    32    16    23 ar  
    33    17    18 1   
    34    17    19 1   
    35    18    46 1   
    36    18    47 1   
    37    18    48 1   
    38    19    20 2   
    39    19    21 1   
    40    21    22 1   
    41    21    23 1   
    42    22    49 1   
    43    22    50 1   
    44    22    51 1   
    45    23    24 ar  
    46    24    25 ar  
    47    24    52 1   
    48    25    26 1   
    49    26    27 1   
    50    26    31 1   
    51    27    28 1   
    52    27    53 1   
    53    27    54 1   
    54    28    29 1   
    55    28    56 1   
    56    28    57 1   
    57    29    30 1   
    58    29    58 1   
    59    30    31 1   
    60    30    59 1   
    61    30    60 1   
    62    31    32 1   
    63    31    55 1   
    64    32    61 1   
    65    32    62 1   
    66    32    63 1   
@<TRIPOS>SUBSTRUCTURE
     1 8VI         1 TEMP              0 ****  ****    0 ROOT
