@<TRIPOS>MOLECULE
molecule
   63    66     1     0     0
SMALL
bcc


@<TRIPOS>ATOM
      1 C01          0.0000     0.0000     0.0000 c3         1 8VI      -0.119100
      2 C05          1.5300     0.0000     0.0000 c3         1 8VI       0.097000
      3 N08          2.0190     0.0000     1.3810 n          1 8VI      -0.389000
      4 C09          2.1320    -1.1620     2.0550 c          1 8VI       0.694700
      5 O10          2.4330    -1.1530     3.2330 o          1 8VI      -0.580100
      6 C11          1.8880    -2.4420     1.3660 ca         1 8VI      -0.167600
      7 C12          2.5780    -2.7490     0.1900 ca         1 8VI      -0.070000
      8 C14          2.3470    -3.9480    -0.4490 ca         1 8VI      -0.179000
      9 C16          1.4320    -4.8500     0.0670 ca         1 8VI      -0.073000
     10 C18          0.7430    -4.5590     1.2270 ca         1 8VI      -0.229000
     11 C20          0.9680    -3.3600     1.8880 ca         1 8VI       0.184100
     12 O21          0.2950    -3.0760     3.0310 os         1 8VI      -0.306900
     13 C22         -0.6260    -4.0600     3.5040 c3         1 8VI       0.126700
     14 C26          2.3710     1.2070     2.0000 ca         1 8VI       0.082600
     15 C27          1.4190     1.9270     2.7040 ca         1 8VI      -0.112000
     16 C29          1.7680     3.1210     3.3160 ca         1 8VI      -0.002400
     17 N30          1.0560     4.0490     4.0750 n          1 8VI      -0.360000
     18 C31         -0.3630     3.9570     4.4320 c3         1 8VI       0.117300
     19 C35          1.8940     5.0430     4.4270 c          1 8VI       0.802500
     20 O36          1.5890     6.0140     5.0950 o          1 8VI      -0.666500
     21 N37          3.1190     4.8000     3.9280 n          1 8VI      -0.360000
     22 C38          4.2980     5.6540     4.0970 c3         1 8VI       0.117300
     23 C42          3.0780     3.5980     3.2230 ca         1 8VI       0.006600
     24 C43          4.0300     2.8770     2.5180 ca         1 8VI      -0.158000
     25 C45          3.6810     1.6810     1.9110 ca         1 8VI       0.094600
     26 N46          4.6430     0.9490     1.2030 nh         1 8VI      -0.612000
     27 C47          5.7100     0.4780     2.0970 c3         1 8VI       0.169800
     28 C50          6.6960    -0.3810     1.3020 c3         1 8VI       0.155800
     29 N53          7.2510     0.4110     0.1960 n7         1 8VI      -0.823200
     30 C55          6.1840     0.8810    -0.6990 c3         1 8VI       0.163800
     31 C58          5.1980     1.7410     0.0960 c3         1 8VI       0.173500
     32 C60          4.0640     2.1980    -0.8230 c3         1 8VI      -0.095100
     33 H011        -0.3610     0.9900    -0.2520 hc         1 8VI       0.042033
     34 H012        -0.3610    -0.7130    -0.7320 hc         1 8VI       0.042033
     35 H013        -0.3610    -0.2770     0.9830 hc         1 8VI       0.042033
     36 H051         1.8910     0.8840    -0.5110 h1         1 8VI       0.058200
     37 H052         1.8910    -0.8840    -0.5110 h1         1 8VI       0.058200
     38 H12          3.2950    -2.0460    -0.2170 ha         1 8VI       0.147000
     39 H14          2.8820    -4.1850    -1.3610 ha         1 8VI       0.133000
     40 H16          1.2540    -5.7880    -0.4440 ha         1 8VI       0.131000
     41 H18          0.0300    -5.2710     1.6260 ha         1 8VI       0.139000
     42 H221        -0.0980    -4.9860     3.6990 h1         1 8VI       0.042700
     43 H222        -1.0900    -3.7100     4.4190 h1         1 8VI       0.042700
     44 H223        -1.3890    -4.2300     2.7550 h1         1 8VI       0.042700
     45 H27          0.4210     1.5240     2.8320 ha         1 8VI       0.148000
     46 H311        -0.9610     3.9310     3.5290 h1         1 8VI       0.053033
     47 H312        -0.6420     4.8200     5.0250 h1         1 8VI       0.053033
     48 H313        -0.5330     3.0540     5.0050 h1         1 8VI       0.053033
     49 H381         4.6410     5.9930     3.1260 h1         1 8VI       0.053033
     50 H382         4.0390     6.5110     4.7070 h1         1 8VI       0.053033
     51 H383         5.0860     5.0900     4.5810 h1         1 8VI       0.053033
     52 H43          5.0470     3.2440     2.4480 ha         1 8VI       0.143000
     53 H471         5.2770    -0.1150     2.8940 h1         1 8VI       0.053700
     54 H472         6.2310     1.3300     2.5160 h1         1 8VI       0.053700
     55 H58          5.7160     2.6040     0.4960 h1         1 8VI       0.040700
     56 H501         6.1800    -1.2460     0.9030 h1         1 8VI       0.040700
     57 H502         7.5000    -0.7030     1.9540 h1         1 8VI       0.040700
     58 H53          7.8990    -0.1480    -0.3230 hn         1 8VI       0.354800
     59 H551         6.6170     1.4730    -1.4960 h1         1 8VI       0.037700
     60 H552         5.6630     0.0280    -1.1170 h1         1 8VI       0.037700
     61 H601         3.6510     1.3410    -1.3400 hc         1 8VI       0.041700
     62 H602         4.4490     2.9060    -1.5470 hc         1 8VI       0.041700
     63 H603         3.2890     2.6710    -0.2320 hc         1 8VI       0.041700
@<TRIPOS>BOND
     1     1     2 1   
     2     2     3 1   
     3     3     4 1   
     4     3    14 1   
     5     4     5 2   
     6     4     6 1   
     7     6     7 ar  
     8     6    11 ar  
     9     7     8 ar  
    10     8     9 ar  
    11     9    10 ar  
    12    10    11 ar  
    13    11    12 1   
    14    12    13 1   
    15    14    15 ar  
    16    14    25 ar  
    17    15    16 ar  
    18    16    17 1   
    19    16    23 ar  
    20    17    18 1   
    21    17    19 1   
    22    19    20 2   
    23    19    21 1   
    24    21    22 1   
    25    21    23 1   
    26    23    24 ar  
    27    24    25 ar  
    28    25    26 1   
    29    26    27 1   
    30    26    31 1   
    31    27    28 1   
    32    28    29 1   
    33    29    30 1   
    34    30    31 1   
    35    31    32 1   
    36     1    33 1   
    37     1    34 1   
    38     1    35 1   
    39     2    36 1   
    40     2    37 1   
    41     7    38 1   
    42     8    39 1   
    43     9    40 1   
    44    10    41 1   
    45    13    42 1   
    46    13    43 1   
    47    13    44 1   
    48    15    45 1   
    49    18    46 1   
    50    18    47 1   
    51    18    48 1   
    52    22    49 1   
    53    22    50 1   
    54    22    51 1   
    55    24    52 1   
    56    27    53 1   
    57    27    54 1   
    58    31    55 1   
    59    28    56 1   
    60    28    57 1   
    61    29    58 1   
    62    30    59 1   
    63    30    60 1   
    64    32    61 1   
    65    32    62 1   
    66    32    63 1   
@<TRIPOS>SUBSTRUCTURE
     1 8VI         1 TEMP              0 ****  ****    0 ROOT
