@<TRIPOS>MOLECULE
molecule
   44    46     1     0     0
SMALL
bcc


@<TRIPOS>ATOM
      1 C29          0.0000     0.0000     0.0000 c3         1 8VJ       0.150600
      2 N28          1.4690     0.0000     0.0000 n3         1 8VJ      -0.728600
      3 C30          1.9960     0.0000     1.3710 c3         1 8VJ       0.150600
      4 C27          1.9950    -1.1370    -0.7670 c3         1 8VJ       0.213100
      5 C26          5.7200    -1.3450    -0.1900 ca         1 8VJ      -0.193000
      6 C25          4.3560    -1.4950    -0.0200 ca         1 8VJ      -0.078000
      7 C24          3.4820    -0.9730    -0.9540 ca         1 8VJ      -0.119300
      8 C23          3.9680    -0.3010    -2.0610 ca         1 8VJ      -0.078000
      9 C22          5.3290    -0.1480    -2.2350 ca         1 8VJ      -0.193000
     10 C21          6.2100    -0.6710    -1.2980 ca         1 8VJ       0.136100
     11 O12          7.5500    -0.5230    -1.4670 os         1 8VJ      -0.325900
     12 C11          7.9830     0.1820    -2.6330 c3         1 8VJ       0.172700
     13 C10         11.5310    -1.6830    -3.1580 ca         1 8VJ       0.436600
     14 C09         10.1270    -1.6260    -3.1490 ca         1 8VJ      -0.125300
     15 C08          9.5000    -0.4520    -2.8630 ca         1 8VJ      -0.069300
     16 C07         10.2280     0.7000    -2.5780 ca         1 8VJ      -0.143000
     17 C06         11.5900     0.6830    -2.5770 ca         1 8VJ      -0.112000
     18 C05         12.2690    -0.5100    -2.8670 ca         1 8VJ      -0.162300
     19 C04         13.6780    -0.5660    -2.8750 ca         1 8VJ      -0.079000
     20 C03         14.2760    -1.7560    -3.1650 ca         1 8VJ      -0.255300
     21 C02         13.4880    -2.8820    -3.4460 ca         1 8VJ       0.690200
     22 N02         14.1090    -4.0870    -3.7380 nv         1 8VJ      -1.085500
     23 N01         12.1730    -2.8250    -3.4300 nb         1 8VJ      -0.703000
     24 H291        -0.3610     0.0100    -1.0210 h1         1 8VJ       0.032033
     25 H292        -0.3610    -0.8890     0.5020 h1         1 8VJ       0.032033
     26 H293        -0.3610     0.8800     0.5190 h1         1 8VJ       0.032033
     27 H301         1.3600     0.6090     2.0030 h1         1 8VJ       0.032033
     28 H302         3.0000     0.4060     1.3720 h1         1 8VJ       0.032033
     29 H303         2.0160    -1.0150     1.7500 h1         1 8VJ       0.032033
     30 H271         1.5120    -1.1740    -1.7360 h1         1 8VJ       0.037700
     31 H272         1.7980    -2.0570    -0.2300 h1         1 8VJ       0.037700
     32 H25          3.9730    -2.0210     0.8460 ha         1 8VJ       0.134000
     33 H23          3.2800     0.1080    -2.7910 ha         1 8VJ       0.134000
     34 H22          5.7090     0.3790    -3.1010 ha         1 8VJ       0.137500
     35 H111         7.6330    -0.3350    -3.5180 h1         1 8VJ       0.058200
     36 H112         7.5790     1.1870    -2.6180 h1         1 8VJ       0.058200
     37 H09          9.5480    -2.4900    -3.4500 ha         1 8VJ       0.154000
     38 H07          9.7060     1.6110    -2.3110 ha         1 8VJ       0.133000
     39 H06         12.1460     1.5850    -2.3530 ha         1 8VJ       0.131000
     40 H04         14.2710     0.3140    -2.6560 ha         1 8VJ       0.139000
     41 H03         15.3540    -1.8160    -3.2450 ha         1 8VJ       0.143000
     42 H021        14.3190    -4.3250    -4.6880 hn         1 8VJ       0.437300
     43 H022        14.3220    -4.7320    -3.0030 hn         1 8VJ       0.437300
     44 H26          6.4060    -1.7540     0.5420 ha         1 8VJ       0.137500
@<TRIPOS>BOND
     1     1     2 1   
     2     2     3 1   
     3     2     4 1   
     4     4     7 1   
     5     5     6 ar  
     6     5    10 ar  
     7     6     7 ar  
     8     7     8 ar  
     9     8     9 ar  
    10     9    10 ar  
    11    10    11 1   
    12    11    12 1   
    13    12    15 1   
    14    13    14 ar  
    15    13    18 ar  
    16    13    23 ar  
    17    14    15 ar  
    18    15    16 ar  
    19    16    17 ar  
    20    17    18 ar  
    21    18    19 ar  
    22    19    20 ar  
    23    20    21 ar  
    24    21    22 1   
    25    21    23 ar  
    26     1    24 1   
    27     1    25 1   
    28     1    26 1   
    29     3    27 1   
    30     3    28 1   
    31     3    29 1   
    32     4    30 1   
    33     4    31 1   
    34     5    44 1   
    35     6    32 1   
    36     8    33 1   
    37     9    34 1   
    38    12    35 1   
    39    12    36 1   
    40    14    37 1   
    41    16    38 1   
    42    17    39 1   
    43    19    40 1   
    44    20    41 1   
    45    22    42 1   
    46    22    43 1   
@<TRIPOS>SUBSTRUCTURE
     1 8VJ         1 TEMP              0 ****  ****    0 ROOT
