@<TRIPOS>MOLECULE
8VJ
   44    46     1     0     0
SMALL
bcc


@<TRIPOS>ATOM
      1 C29          0.0000     0.0000     0.0000 c3         1 8VJ       0.180600
      2 N28          1.4690     0.0000     0.0000 n3         1 8VJ      -0.543600
      3 C30          1.9960     0.0000     1.3710 c3         1 8VJ       0.180600
      4 C27          1.9950    -1.1370    -0.7670 c3         1 8VJ       0.217100
      5 C26          5.7200    -1.3450    -0.1900 ca         1 8VJ      -0.179500
      6 C25          4.3560    -1.4950    -0.0200 ca         1 8VJ      -0.046000
      7 C24          3.4820    -0.9730    -0.9540 ca         1 8VJ      -0.135300
      8 C23          3.9680    -0.3010    -2.0610 ca         1 8VJ      -0.046000
      9 C22          5.3290    -0.1480    -2.2350 ca         1 8VJ      -0.179500
     10 C21          6.2100    -0.6710    -1.2980 ca         1 8VJ       0.146100
     11 O12          7.5500    -0.5230    -1.4670 os         1 8VJ      -0.303900
     12 C11          7.9830     0.1820    -2.6330 c3         1 8VJ       0.258700
     13 C10         11.5310    -1.6830    -3.1580 ca         1 8VJ       0.383600
     14 C09         10.1270    -1.6260    -3.1490 ca         1 8VJ      -0.092300
     15 C08          9.5000    -0.4520    -2.8630 ca         1 8VJ      -0.084300
     16 C07         10.2280     0.7000    -2.5780 ca         1 8VJ      -0.130000
     17 C06         11.5900     0.6830    -2.5770 ca         1 8VJ      -0.083000
     18 C05         12.2690    -0.5100    -2.8670 ca         1 8VJ      -0.153300
     19 C04         13.6780    -0.5660    -2.8750 ca         1 8VJ      -0.053000
     20 C03         14.2760    -1.7560    -3.1650 ca         1 8VJ      -0.223300
     21 C02         13.4880    -2.8820    -3.4460 ca         1 8VJ       0.504200
     22 N02         14.1090    -4.0870    -3.7380 nv         1 8VJ      -0.663500
     23 N01         12.1730    -2.8250    -3.4300 nb         1 8VJ      -0.577000
     24 H291        -0.3610     0.0100    -1.0210 h1         1 8VJ       0.001533
     25 H292        -0.3610    -0.8890     0.5020 h1         1 8VJ       0.001533
     26 H293        -0.3610     0.8800     0.5190 h1         1 8VJ       0.001533
     27 H301         1.3600     0.6090     2.0030 h1         1 8VJ       0.001533
     28 H302         3.0000     0.4060     1.3720 h1         1 8VJ       0.001533
     29 H303         2.0160    -1.0150     1.7500 h1         1 8VJ       0.001533
     30 H271         1.5120    -1.1740    -1.7360 h1         1 8VJ       0.010200
     31 H272         1.7980    -2.0570    -0.2300 h1         1 8VJ       0.010200
     32 H25          3.9730    -2.0210     0.8460 ha         1 8VJ       0.106000
     33 H23          3.2800     0.1080    -2.7910 ha         1 8VJ       0.106000
     34 H22          5.7090     0.3790    -3.1010 ha         1 8VJ       0.117000
     35 H111         7.6330    -0.3350    -3.5180 h1         1 8VJ       0.016200
     36 H112         7.5790     1.1870    -2.6180 h1         1 8VJ       0.016200
     37 H09          9.5480    -2.4900    -3.4500 ha         1 8VJ       0.119000
     38 H07          9.7060     1.6110    -2.3110 ha         1 8VJ       0.111000
     39 H06         12.1460     1.5850    -2.3530 ha         1 8VJ       0.105000
     40 H04         14.2710     0.3140    -2.6560 ha         1 8VJ       0.110000
     41 H03         15.3540    -1.8160    -3.2450 ha         1 8VJ       0.116000
     42 H021        14.3190    -4.3250    -4.6880 hn         1 8VJ       0.277300
     43 H022        14.3220    -4.7320    -3.0030 hn         1 8VJ       0.277300
     44 H26          6.4060    -1.7540     0.5420 ha         1 8VJ       0.117000
@<TRIPOS>BOND
     1     1     2 1   
     2     1    24 1   
     3     1    25 1   
     4     1    26 1   
     5     2     3 1   
     6     2     4 1   
     7     3    27 1   
     8     3    28 1   
     9     3    29 1   
    10     4     7 1   
    11     4    30 1   
    12     4    31 1   
    13     5     6 ar  
    14     5    10 ar  
    15     5    44 1   
    16     6     7 ar  
    17     6    32 1   
    18     7     8 ar  
    19     8     9 ar  
    20     8    33 1   
    21     9    10 ar  
    22     9    34 1   
    23    10    11 1   
    24    11    12 1   
    25    12    15 1   
    26    12    35 1   
    27    12    36 1   
    28    13    14 ar  
    29    13    18 ar  
    30    13    23 ar  
    31    14    15 ar  
    32    14    37 1   
    33    15    16 ar  
    34    16    17 ar  
    35    16    38 1   
    36    17    18 ar  
    37    17    39 1   
    38    18    19 ar  
    39    19    20 ar  
    40    19    40 1   
    41    20    21 ar  
    42    20    41 1   
    43    21    22 1   
    44    21    23 ar  
    45    22    42 1   
    46    22    43 1   
@<TRIPOS>SUBSTRUCTURE
     1 8VJ         1 TEMP              0 ****  ****    0 ROOT
