@<TRIPOS>MOLECULE
molecule
   50    52     1     0     0
SMALL
bcc


@<TRIPOS>ATOM
      1 C10          0.0000     0.0000     0.0000 ca         1 8VL      -0.101000
      2 C15          1.3960    -0.0100     2.4040 ca         1 8VL      -0.116000
      3 C17          3.5880    -0.0000     1.2000 c3         1 8VL      -0.038100
      4 C20          6.1320     2.8510     0.9440 c          1 8VL       0.856600
      5 C24          2.4360     1.1010    -4.0450 c3         1 8VL      -0.113100
      6 C26          3.5620    -2.8230    -5.0250 ca         1 8VL      -0.114000
      7 C28          4.1690    -3.4810    -7.4640 ca         1 8VL      -0.179000
      8 C02          1.1950    -1.6690    -7.5910 ca         1 8VL       0.116100
      9 C03          0.6150    -0.5930    -7.2080 ca         1 8VL      -0.148000
     10 C04          0.9410    -0.0280    -5.9290 ca         1 8VL      -0.090000
     11 C05          1.5510    -0.9190    -4.7170 ca         1 8VL       0.009700
     12 C06          2.4090    -0.2970    -3.7670 c3         1 8VL      -0.088400
     13 C07          1.5100    -0.5040    -2.3220 c          1 8VL       0.611100
     14 C09          1.3860     0.0000     0.0000 ca         1 8VL      -0.038400
     15 C11         -0.6920    -0.0000     1.2120 ca         1 8VL      -0.047000
     16 C12         -2.1240     0.0050     1.2210 cg         1 8VL       0.257800
     17 C14          0.0160    -0.0050     2.4160 ca         1 8VL      -0.107000
     18 C16          2.0810     0.0000     1.2030 ca         1 8VL      -0.042300
     19 C18          4.0980     1.4360     1.0730 c3         1 8VL      -0.119400
     20 C19          5.6290     1.4360     1.0700 c3         1 8VL      -0.173400
     21 C25          2.5400    -1.9980    -5.7170 ca         1 8VL      -0.048000
     22 C27          4.3060    -3.2910    -5.6840 ca         1 8VL      -0.164000
     23 C29          2.8530    -3.1040    -7.6710 ca         1 8VL      -0.081000
     24 C30          2.1730    -2.5190    -7.0070 ca         1 8VL       0.002000
     25 N08          2.0850    -0.0000    -1.2120 ns         1 8VL      -0.407100
     26 N13         -3.2600     0.0280     1.2250 n1         1 8VL      -0.395800
     27 O21          7.3680     2.8350     0.7960 o          1 8VL      -0.853800
     28 O22          5.5340     4.0520     0.8630 o          1 8VL      -0.853800
     29 O23          0.3950    -1.0900    -2.3800 o          1 8VL      -0.578100
     30 H1          -0.3870     0.0540    -1.0100 ha         1 8VL       0.171000
     31 H2           1.7720     0.0080     3.4190 ha         1 8VL       0.144000
     32 H3           3.7160    -0.3470     0.1820 hc         1 8VL       0.062200
     33 H4           3.7550    -0.6740     2.0320 hc         1 8VL       0.062200
     34 H6           1.5970     1.7570    -3.8420 hc         1 8VL       0.060700
     35 H7           2.7110     1.1490    -5.0910 hc         1 8VL       0.060700
     36 H8           4.0190    -2.1680    -4.2930 ha         1 8VL       0.131000
     37 H9           5.0680    -4.0580    -7.6430 ha         1 8VL       0.194000
     38 H10         -0.0790    -0.2520    -7.9670 ha         1 8VL       0.165000
     39 H11          0.6380     0.9920    -5.7250 ha         1 8VL       0.132000
     40 H12          3.3120    -0.8630    -3.5760 hc         1 8VL       0.110700
     41 H13         -0.7350     0.1260     3.1860 ha         1 8VL       0.139000
     42 H14          4.1730     1.9250     2.0370 hc         1 8VL       0.067700
     43 H15          3.6890     2.0690     0.2950 hc         1 8VL       0.067700
     44 H16          6.1110     0.9500     0.2300 hc         1 8VL       0.045700
     45 H17          5.7290     1.1020     2.0950 hc         1 8VL       0.045700
     46 H18          5.2800    -3.6270    -5.3500 ha         1 8VL       0.108000
     47 H19          2.8300    -3.3390    -8.7280 ha         1 8VL       0.131000
     48 H20          2.5320     0.8950    -1.2200 hn         1 8VL       0.333500
     49 Br1          0.1170    -2.2250    -9.3330 br         1 8VL      -0.246100
     50 H5           3.2170     1.2640    -3.3120 hc         1 8VL       0.060700
@<TRIPOS>BOND
     1    49     8 1
     2     7    23 ar
     3     7    22 ar
     4    23    24 ar
     5    22     6 ar
     6    24     8 ar
     7    24    21 ar
     8     8     9 ar
     9     6    21 ar
    10    21    11 ar
    11     9    10 ar
    12    28     4 1
    13    11    10 ar
    14    11    12 1
    15     4    20 1
    16     4    27 1
    17    20    19 1
    18    12     5 1
    19    12    13 1
    20    19     3 1
    21    25    13 1
    22    25    14 1
    23    13    29 2
    24    14     1 ar
    25    14    18 ar
    26     3    18 1
    27     1    15 ar
    28    18     2 ar
    29    15    16 1
    30    15    17 ar
    31     2    17 ar
    32    16    26 3
    33     1    30 1
    34     2    31 1
    35     3    32 1
    36     3    33 1
    37     5    50 1
    38     5    34 1
    39     5    35 1
    40     6    36 1
    41     7    37 1
    42     9    38 1
    43    10    39 1
    44    12    40 1
    45    17    41 1
    46    19    42 1
    47    19    43 1
    48    20    44 1
    49    20    45 1
    50    22    46 1
    51    23    47 1
    52    25    48 1
@<TRIPOS>SUBSTRUCTURE
     1 8VL         1 TEMP              0 ****  ****    0 ROOT
