@<TRIPOS>MOLECULE
molecule
   69    71     1     0     0
SMALL
bcc


@<TRIPOS>ATOM
      1 C6           0.0000     0.0000     0.0000 c          1 8VM       0.729700
      2 C1           3.6960     0.0000     1.3390 cc         1 8VM       0.000600
      3 C4           1.4280     0.0020     0.3260 cc         1 8VM      -0.181700
      4 C3           2.4500    -0.0050    -0.5820 cd         1 8VM      -0.000300
      5 C2           3.6950     0.0000     0.0000 cd         1 8VM      -0.183000
      6 C17          5.0920    -0.9330     4.5060 ca         1 8VM      -0.087000
      7 C18          4.7370    -0.9370     5.8410 ca         1 8VM      -0.216000
      8 C21          3.6470     0.9380     4.1200 ca         1 8VM      -0.108000
      9 C16          4.5490     0.0030     3.6470 ca         1 8VM      -0.129300
     10 C20          3.2790     0.9310     5.4520 ca         1 8VM      -0.106300
     11 C19          3.8280    -0.0040     6.3180 ca         1 8VM       0.150100
     12 C9          -2.2690     0.0050     0.6770 cc         1 8VM       0.535400
     13 C22          2.2960     1.9520     5.9680 c3         1 8VM      -0.036800
     14 C14          2.2320    -0.0150    -2.0740 c3         1 8VM      -0.034800
     15 C32          4.9020    -2.4900     2.0480 c3         1 8VM      -0.099100
     16 C34          4.8850     2.4990     2.0530 c3         1 8VM      -0.099100
     17 C28          4.0530    -3.2650    10.3210 c3         1 8VM      -0.084433
     18 C29          3.7620    -1.6890    12.2360 c3         1 8VM      -0.084433
     19 C30          5.7860    -1.5250    10.7800 c3         1 8VM      -0.084433
     20 C31          5.7720    -1.2420     1.8850 c3         1 8VM      -0.068900
     21 C33          5.7620     1.2570     1.8850 c3         1 8VM      -0.068900
     22 C24          4.0730    -1.0020     8.4620 c3         1 8VM       0.125400
     23 C25          3.5480    -0.8570     9.8910 c3         1 8VM       0.160100
     24 C27          4.2870    -1.8340    10.8070 c3         1 8VM      -0.083000
     25 N10         -2.8100    -0.0090    -0.5620 na         1 8VM      -0.188400
     26 N11         -4.2010    -0.0060    -0.3590 nc         1 8VM      -0.218800
     27 N12         -4.3910     0.0100     0.9160 nd         1 8VM       0.005000
     28 N13         -3.2660     0.0100     1.5350 nd         1 8VM      -0.455000
     29 N8          -0.9170     0.0070     0.9870 ns         1 8VM      -0.525400
     30 O7          -0.3580    -0.0030    -1.1640 o          1 8VM      -0.614100
     31 O26          2.1490    -1.1450     9.9160 oh         1 8VM      -0.596800
     32 O23          3.4670    -0.0120     7.6280 os         1 8VM      -0.324900
     33 S5           2.1030     0.0010     1.9490 ss         1 8VM      -0.052800
     34 H1           4.6090    -0.0040    -0.5820 ha         1 8VM       0.158000
     35 H2           5.8010    -1.6630     4.1330 ha         1 8VM       0.141000
     36 H3           5.1660    -1.6690     6.5150 ha         1 8VM       0.138000
     37 H4           3.2200     1.6690     3.4450 ha         1 8VM       0.150000
     38 H5           1.4160     1.4470     6.3460 hc         1 8VM       0.045700
     39 H6           2.0120     2.6190     5.1630 hc         1 8VM       0.045700
     40 H7           2.7550     2.5240     6.7650 hc         1 8VM       0.045700
     41 H8           1.6740    -0.9010    -2.3510 hc         1 8VM       0.056367
     42 H9           3.1910    -0.0190    -2.5790 hc         1 8VM       0.056367
     43 H10          1.6760     0.8680    -2.3640 hc         1 8VM       0.056367
     44 H11          5.4350    -3.2280     2.6340 hc         1 8VM       0.039700
     45 H12          3.9800    -2.2250     2.5520 hc         1 8VM       0.039700
     46 H13          4.6740    -2.9010     1.0710 hc         1 8VM       0.039700
     47 H14          4.9610     2.8600     3.0720 hc         1 8VM       0.039700
     48 H15          5.2180     3.2710     1.3710 hc         1 8VM       0.039700
     49 H16          3.8540     2.2450     1.8360 hc         1 8VM       0.039700
     50 H17          3.0100    -3.3900    10.0550 hc         1 8VM       0.039256
     51 H18          4.6720    -3.4590     9.4540 hc         1 8VM       0.039256
     52 H19          4.3100    -3.9610    11.1110 hc         1 8VM       0.039256
     53 H20          3.8170    -0.6490    12.5370 hc         1 8VM       0.039256
     54 H21          4.3660    -2.2900    12.9060 hc         1 8VM       0.039256
     55 H22          2.7330    -2.0230    12.2790 hc         1 8VM       0.039256
     56 H23          6.2260    -1.9520     9.8880 hc         1 8VM       0.039256
     57 H24          6.2580    -1.9530    11.6560 hc         1 8VM       0.039256
     58 H25          5.9330    -0.4520    10.7780 hc         1 8VM       0.039256
     59 H26          6.6090    -1.2940     2.5700 hc         1 8VM       0.049200
     60 H27          6.1410    -1.1890     0.8680 hc         1 8VM       0.049200
     61 H28          6.6010     1.3130     2.5680 hc         1 8VM       0.049200
     62 H29          6.1290     1.2080     0.8670 hc         1 8VM       0.049200
     63 H30          3.8290    -1.9890     8.0860 h1         1 8VM       0.048700
     64 H31          5.1480    -0.8700     8.4570 h1         1 8VM       0.048700
     65 H32          3.7140     0.1560    10.2350 h1         1 8VM       0.044700
     66 H33         -2.3230    -0.0170    -1.4370 hn         1 8VM       0.368700
     67 H34         -0.6230     0.0070     1.9430 hn         1 8VM       0.361500
     68 H35          1.6880    -0.4330    10.3270 ho         1 8VM       0.407000
     69 C15          4.9390     0.0050     2.1910 c3         1 8VM       0.063600
@<TRIPOS>BOND
     1    16    21 1
     2    25    26 1
     3    25    12 1
     4    19    24 1
     5    26    27 2
     6    13    10 1
     7    31    23 1
     8    30     1 2
     9    21    69 1
    10    12    29 1
    11    12    28 2
    12    27    28 1
    13    29     1 1
    14     1     3 1
    15    33     3 1
    16    33     2 1
    17    23    24 1
    18    23    22 1
    19    10     8 ar
    20    10    11 ar
    21     8     9 ar
    22     3     4 2
    23    24    18 1
    24    24    17 1
    25    32    11 1
    26    32    22 1
    27     9    69 1
    28     9     6 ar
    29    69     2 1
    30    69    20 1
    31    11     7 ar
    32     2     5 2
    33     4     5 1
    34     4    14 1
    35     6     7 ar
    36    20    15 1
    37     5    34 1
    38     6    35 1
    39     7    36 1
    40     8    37 1
    41    13    38 1
    42    13    39 1
    43    13    40 1
    44    14    41 1
    45    14    42 1
    46    14    43 1
    47    15    44 1
    48    15    45 1
    49    15    46 1
    50    16    47 1
    51    16    48 1
    52    16    49 1
    53    17    50 1
    54    17    51 1
    55    17    52 1
    56    18    53 1
    57    18    54 1
    58    18    55 1
    59    19    56 1
    60    19    57 1
    61    19    58 1
    62    20    59 1
    63    20    60 1
    64    21    61 1
    65    21    62 1
    66    22    63 1
    67    22    64 1
    68    23    65 1
    69    25    66 1
    70    29    67 1
    71    31    68 1
@<TRIPOS>SUBSTRUCTURE
     1 8VM         1 TEMP              0 ****  ****    0 ROOT
