@<TRIPOS>MOLECULE
8VN
   20    21     1     0     0
SMALL
bcc


@<TRIPOS>ATOM
      1 C1           0.0000     0.0000     0.0000 c3         1 8VN       0.140800
      2 C2           0.7130     2.2880    -0.0630 c3         1 8VN       0.024500
      3 C3           3.0890     1.7630     0.4450 ce         1 8VN       0.361300
      4 C4           1.9260     1.4310    -0.4720 c3         1 8VN      -0.109000
      5 C5           1.5350     0.0000     0.0000 c3         1 8VN       0.098100
      6 C6           4.0630     2.8520     0.2440 c          1 8VN       0.890300
      7 C7           0.5080     3.3990    -1.0610 c          1 8VN       0.978600
      8 O1           2.0200     0.0000     1.3560 os         1 8VN      -0.226300
      9 O3           5.0550     3.0430     1.1360 o          1 8VN      -0.857800
     10 O4           1.2620     4.5070    -0.9950 o          1 8VN      -0.886300
     11 O5          -0.3350     3.2930    -1.9190 o          1 8VN      -0.886300
     12 N1          -0.4570     1.3960    -0.0570 n7         1 8VN      -0.548200
     13 N2           3.0810     0.9310     1.4310 n2         1 8VN      -0.423200
     14 O2           3.9710     3.5770    -0.7270 o          1 8VN      -0.857800
     15 H1          -0.3650    -0.4660     0.9070 h1         1 8VN      -0.009800
     16 H2          -0.3650    -0.5380    -0.8670 h1         1 8VN      -0.009800
     17 H3           0.8690     2.6980     0.9280 h1         1 8VN       0.023700
     18 H4           2.1690     1.4880    -1.5260 hc         1 8VN       0.068700
     19 H5           1.9680    -0.7820    -0.6120 h1         1 8VN       0.009700
     20 H8          -1.0240     1.5940     0.7440 hn         1 8VN       0.220800
@<TRIPOS>BOND
     1     1     5 1   
     2     1    12 1   
     3     1    15 1   
     4     1    16 1   
     5     2     4 1   
     6     2     7 1   
     7     2    12 1   
     8     2    17 1   
     9     3     4 1   
    10     3     6 1   
    11     3    13 2   
    12     4     5 1   
    13     4    18 1   
    14     5     8 1   
    15     5    19 1   
    16     6     9 1   
    17     6    14 1   
    18     7    10 1   
    19     7    11 1   
    20     8    13 1   
    21    12    20 1   
@<TRIPOS>SUBSTRUCTURE
     1 8VN         1 TEMP              0 ****  ****    0 ROOT
