@<TRIPOS>MOLECULE
molecule
   30    31     1     0     0
SMALL
bcc


@<TRIPOS>ATOM
      1 C1           0.0000     0.0000     0.0000 c3         1 8VR       0.339900
      2 C2           1.5310     0.0000     0.0000 c3         1 8VR       0.111100
      3 C3           2.0300     0.0000     1.4470 c3         1 8VR       0.154100
      4 C4           1.4500     1.2100     2.1820 c3         1 8VR       0.098100
      5 C5          -0.0790     1.1850     2.0870 c3         1 8VR       0.081100
      6 C6          -0.6290     2.4680     2.7240 c3         1 8VR       0.158400
      7 C7           1.4120     3.6040     2.1830 c3         1 8VR       0.234600
      8 C8           1.8230     3.6600     3.6320 c          1 8VR       0.855600
      9 C9           1.9620     4.8280     1.4490 c3         1 8VR      -0.045100
     10 O1          -0.4780     0.0480    -1.3460 oh         1 8VR      -0.587800
     11 O2           2.0090    -1.1670    -0.6730 oh         1 8VR      -0.618800
     12 O3           3.4570     0.0730     1.4610 oh         1 8VR      -0.574800
     13 O4           1.9350     2.4160     1.5850 os         1 8VR      -0.411600
     14 O5          -0.4720     1.1440     0.7140 os         1 8VR      -0.427600
     15 O6          -0.0140     3.5960     2.0940 os         1 8VR      -0.417600
     16 O8A          1.5310     4.7420     4.3720 o          1 8VR      -0.830800
     17 O8B          2.4170     2.7320     4.1280 o          1 8VR      -0.830800
     18 H1          -0.3600    -0.9000     0.4840 h2         1 8VR       0.012700
     19 H2           1.8910     0.8880    -0.5050 h1         1 8VR       0.090700
     20 H3           1.7050    -0.9090     1.9400 h1         1 8VR       0.029700
     21 H4           1.7480     1.1770     3.2230 h1         1 8VR       0.123700
     22 H5          -0.4670     0.3190     2.6080 h1         1 8VR       0.020700
     23 H6          -1.7010     2.5120     2.5810 h1         1 8VR       0.057700
     24 H7          -0.3980     2.4740     3.7830 h1         1 8VR       0.057700
     25 H8           1.4790     5.7220     1.8250 hc         1 8VR       0.041700
     26 H9           1.7670     4.7310     0.3880 hc         1 8VR       0.041700
     27 H10          3.0310     4.8990     1.6140 hc         1 8VR       0.041700
     28 H11         -1.3330    -0.3460    -1.3900 ho         1 8VR       0.399000
     29 H12          2.4860    -0.9110    -1.4450 ho         1 8VR       0.406000
     30 H13          3.8060    -0.6740     1.9180 ho         1 8VR       0.391000
@<TRIPOS>BOND
     1    12     3 1
     2     3     4 1
     3     3     2 1
     4    17     8 1
     5    13     4 1
     6    13     7 1
     7    11     2 1
     8     4     5 1
     9     2     1 1
    10     8     7 1
    11     8    16 1
    12     9     7 1
    13     7    15 1
    14     5    14 1
    15     5     6 1
    16     1    14 1
    17     1    10 1
    18    15     6 1
    19     1    18 1
    20     2    19 1
    21     3    20 1
    22     4    21 1
    23     5    22 1
    24     6    23 1
    25     6    24 1
    26     9    25 1
    27     9    26 1
    28     9    27 1
    29    10    28 1
    30    11    29 1
    31    12    30 1
@<TRIPOS>SUBSTRUCTURE
     1 8VR         1 TEMP              0 ****  ****    0 ROOT
