@<TRIPOS>MOLECULE
molecule
   83    86     1     0     0
SMALL
bcc


@<TRIPOS>ATOM
      1 N            0.0000     0.0000     0.0000 ns         1 8VS      -0.536900
      2 CA           1.4640     0.0000     0.0000 c3         1 8VS       0.085700
      3 C            1.9660     0.0000     1.4210 c          1 8VS       0.654100
      4 O            1.1780     0.0010     2.3420 o          1 8VS      -0.581100
      5 CB           1.9750     1.2480    -0.7220 c3         1 8VS      -0.146100
      6 CG           1.5760     1.1880    -2.1740 ca         1 8VS       0.077700
      7 CD1          2.4170     0.5870    -3.0940 ca         1 8VS      -0.115500
      8 CD2          0.3690     1.7280    -2.5800 ca         1 8VS      -0.115500
      9 CE1          2.0580     0.5270    -4.4250 ca         1 8VS      -0.105500
     10 CE2         -0.0020     1.6740    -3.9080 ca         1 8VS      -0.105500
     11 CZ           0.8450     1.0750    -4.8420 ca         1 8VS      -0.195600
     12 CAA         -3.8060     2.6090     0.3410 ca         1 8VS      -0.155500
     13 CAB         -3.6190     3.5070    -0.6940 ca         1 8VS      -0.073000
     14 CAC         -2.9510     2.9960    -1.8050 ca         1 8VS      -0.155500
     15 CAD         -2.5460     1.6340    -1.7440 ca         1 8VS      -0.127000
     16 CAE         -2.6880     0.9140    -0.9290 ca         1 8VS      -0.052300
     17 CAF         -3.3740     1.3700     0.2570 ca         1 8VS      -0.127000
     18 CAG         -2.1820    -0.4990    -1.0560 c3         1 8VS      -0.098400
     19 CAH         -2.6910    -1.1080    -2.3630 c3         1 8VS       0.016300
     20 CAI         -0.6740    -0.4940    -1.0570 c          1 8VS       0.638100
     21 CAJ         -2.1770    -2.5430    -2.4930 c3         1 8VS      -0.079900
     22 CAK         -2.6860    -3.1520    -3.8010 c3         1 8VS      -0.117900
     23 CAL         -4.2160    -3.1580    -3.7970 c3         1 8VS      -0.132400
     24 CAM         -4.7310    -1.7220    -3.6680 c3         1 8VS      -0.117900
     25 CAN         -4.2200    -1.1130    -2.3610 c3         1 8VS      -0.079900
     26 CBB          0.4540     1.0150    -6.2670 c          1 8VS       0.473700
     27 CBE          4.1580     0.0500     2.8440 c3         1 8VS       0.136700
     28 CBF          4.3760     1.4760     2.8750 c          1 8VS       0.672100
     29 CBJ          5.3940    -0.8020     2.7720 c3         1 8VS      -0.118100
     30 CBK          5.2060    -2.3900     2.5870 ca         1 8VS      -0.106300
     31 CBL          5.2620    -2.7180     3.9870 ca         1 8VS      -0.081000
     32 CBM          5.1270    -4.0490     4.1710 ca         1 8VS      -0.131000
     33 CBN          4.9560    -4.8760     2.9610 ca         1 8VS      -0.127000
     34 CBO          4.9320    -4.2090     1.4710 ca         1 8VS      -0.049900
     35 CBP          5.0430    -3.1540     1.3870 ca         1 8VS      -0.085000
     36 NAS          3.2920    -0.0000     1.6670 ns         1 8VS      -0.592900
     37 NBC         -0.7200     1.5450    -6.6660 nz         1 8VS      -0.704400
     38 NBG          5.1010     1.8870     3.9900 ns         1 8VS      -0.570900
     39 OAQ         -0.0680    -0.9330    -2.0120 o          1 8VS      -0.629100
     40 OBD          1.1900     0.4880    -7.0770 o          1 8VS      -0.424100
     41 OBI          4.2150     2.5740     2.2190 o          1 8VS      -0.606100
     42 Br1          5.0060    -5.2630     0.1490 br         1 8VS      -0.013100
     43 H1          -0.6520     0.6480     0.3960 hn         1 8VS       0.332500
     44 H2           1.8250    -0.8850    -0.5100 h1         1 8VS       0.106700
     45 H3           2.7550     1.9110    -0.3670 hc         1 8VS       0.097200
     46 H4           1.3030     1.8930    -0.1680 hc         1 8VS       0.097200
     47 H5           3.3860     0.1300    -2.9370 ha         1 8VS       0.174000
     48 H6          -0.5530     2.2200    -2.2940 ha         1 8VS       0.174000
     49 H7           2.8150    -0.0590    -4.9320 ha         1 8VS       0.149500
     50 H8          -1.0530     1.9010    -4.0420 ha         1 8VS       0.149500
     51 H11         -2.5560     3.5630    -2.6400 ha         1 8VS       0.135500
     52 H12         -2.0060     1.5130    -2.6750 ha         1 8VS       0.114500
     53 H13         -3.4850     0.7160     1.1140 ha         1 8VS       0.114500
     54 H14         -2.5400    -1.0880    -0.2200 hc         1 8VS       0.102700
     55 H15         -2.6100    -0.4670    -3.2330 hc         1 8VS       0.045700
     56 H16         -1.1440    -2.5360    -2.8210 hc         1 8VS       0.065200
     57 H17         -2.2950    -3.3630    -1.7950 hc         1 8VS       0.065200
     58 H18         -2.4320    -2.8110    -4.7970 hc         1 8VS       0.036700
     59 H19         -2.4260    -4.1990    -3.8960 hc         1 8VS       0.036700
     60 H20         -4.3660    -3.9040    -3.0270 hc         1 8VS       0.055200
     61 H21         -4.7980    -3.2460    -4.7070 hc         1 8VS       0.055200
     62 H22         -5.7360    -2.0640    -3.4530 hc         1 8VS       0.036700
     63 H23         -4.7370    -1.3620    -4.6900 hc         1 8VS       0.036700
     64 H24         -4.8340    -0.2210    -2.3420 hc         1 8VS       0.065200
     65 H25         -4.7980    -1.8280    -1.7880 hc         1 8VS       0.065200
     66 H26          3.6010    -0.4700     3.6140 h1         1 8VS       0.122700
     67 H27          4.4510     3.9900     4.6110 h1         1 8VS       0.036033
     68 H28          5.7210     3.7670     3.5720 h1         1 8VS       0.036033
     69 H29          5.9130     3.5090     5.1330 h1         1 8VS       0.036033
     70 H30          5.9950    -0.5240     1.9140 hc         1 8VS       0.063700
     71 H31          6.2070    -0.2390     3.2160 hc         1 8VS       0.063700
     72 H32          5.1970    -2.0870     4.8660 ha         1 8VS       0.160000
     73 H33          4.7290    -4.6110     5.0080 ha         1 8VS       0.154000
     74 H34          4.6550    -5.9120     2.8660 ha         1 8VS       0.157000
     75 H35          5.9090    -2.6930     0.9260 ha         1 8VS       0.166000
     76 H36          3.6460    -0.0800     0.7350 hn         1 8VS       0.284500
     77 H37         -0.8170     1.8020    -7.6290 hn         1 8VS       0.493133
     78 H38         -0.7540     2.2880    -5.9960 hn         1 8VS       0.493133
     79 H39          5.6570     1.4390     4.6910 hn         1 8VS       0.305500
     80 H9          -4.4760     2.7220     1.1850 ha         1 8VS       0.135500
     81 CBH          5.1970     3.2440     4.3640 c3         1 8VS       0.043300
     82 HBC3        -1.2120     0.9130    -6.0660 hn         1 8VS       0.493133
     83 H10         -3.9320     4.5450    -0.7020 ha         1 8VS       0.151000
@<TRIPOS>BOND
     1    31    32 ar  
     2    31    30 ar  
     3    81    38 1   
     4    32    33 ar  
     5    29    30 1   
     6    29    27 1   
     7    30    35 ar  
     8    38    28 1   
     9    33    34 ar  
    10    28    41 2   
    11    28    27 1   
    12    35    34 ar  
    13    34    42 1   
    14    27    36 1   
    15    36     3 1   
    16     7     9 ar  
    17     7     6 ar  
    18     3     4 2   
    19     3     2 1   
    20     5     6 1   
    21     5     2 1   
    22     9    11 ar  
    23     6     8 ar  
    24     2     1 1   
    25    37    26 1   
    26    11    26 1   
    27    11    10 ar  
    28     8    10 ar  
    29    26    40 2   
    30     1    20 1   
    31    39    20 2   
    32    20    18 1   
    33    18    16 1   
    34    18    19 1   
    35    25    19 1   
    36    25    24 1   
    37    17    16 ar  
    38    17    12 ar  
    39    16    15 ar  
    40    19    21 1   
    41    12    13 ar  
    42    24    23 1   
    43    15    14 ar  
    44    13    14 ar  
    45    21    22 1   
    46    23    22 1   
    47     1    43 1   
    48     2    44 1   
    49     5    45 1   
    50     5    46 1   
    51     7    47 1   
    52     8    48 1   
    53     9    49 1   
    54    10    50 1   
    55    12    80 1   
    56    13    83 1   
    57    14    51 1   
    58    15    52 1   
    59    17    53 1   
    60    18    54 1   
    61    19    55 1   
    62    21    56 1   
    63    21    57 1   
    64    22    58 1   
    65    22    59 1   
    66    23    60 1   
    67    23    61 1   
    68    24    62 1   
    69    24    63 1   
    70    25    64 1   
    71    25    65 1   
    72    27    66 1   
    73    81    67 1   
    74    81    68 1   
    75    81    69 1   
    76    29    70 1   
    77    29    71 1   
    78    31    72 1   
    79    32    73 1   
    80    33    74 1   
    81    35    75 1   
    82    36    76 1   
    83    37    77 1   
    84    37    78 1   
    85    38    79 1   
    86    82    37 1   
@<TRIPOS>SUBSTRUCTURE
     1 8VS         1 TEMP              0 ****  ****    0 ROOT
