@<TRIPOS>MOLECULE
molecule
   42    42     1     0     0
SMALL
bcc


@<TRIPOS>ATOM
      1 C1           1.5250     0.0000     0.0000 c3         1 8VV       0.016500
      2 C2           0.0000     0.0000     0.0000 c3         1 8VV      -0.158100
      3 C3           2.0030     0.0000     1.4230 c          1 8VV       0.880600
      4 C9          -1.7340    -1.1740    -1.6930 cc         1 8VV       0.327100
      5 C12         -2.3070    -0.5450    -3.6300 cc         1 8VV       0.290600
      6 C13         -3.4390    -0.9700    -2.9260 cd         1 8VV      -0.253600
      7 C14         -2.2550    -0.0150    -5.0430 c3         1 8VV      -0.108700
      8 C15         -3.4500    -0.4760    -5.8710 c3         1 8VV      -0.014500
      9 C16         -4.0500     0.7370    -6.5290 c          1 8VV       0.883600
     10 O4           1.8070    -1.0160     2.1220 o          1 8VV      -0.760300
     11 O5           2.5670     1.0260     1.8610 o          1 8VV      -0.760300
     12 N6           2.0780    -1.1270    -0.7960 nz         1 8VV      -0.801600
     13 S7          -0.7330    -1.4950    -0.3710 sx         1 8VV       0.246300
     14 O8          -1.5810    -1.9030     0.7730 o          1 8VV      -0.455200
     15 N10         -3.0530    -1.3650    -1.6870 na         1 8VV      -0.188900
     16 N11         -1.2300    -0.6730    -2.8270 nc         1 8VV      -0.642000
     17 O17         -5.2970     0.8400    -6.5810 o          1 8VV      -0.770800
     18 O18         -3.2820     1.6100    -6.9890 o          1 8VV      -0.770800
     19 N19         -3.0150    -1.4900    -6.8560 n4         1 8VV      -0.550800
     20 H1           1.8400     0.9370    -0.4430 hx         1 8VV       0.105700
     21 H2          -0.3300     0.2960     0.9890 h1         1 8VV       0.130200
     22 H3          -0.3450     0.7410    -0.7110 h1         1 8VV       0.130200
     23 H4          -4.4530    -0.9810    -3.3070 h4         1 8VV       0.192000
     24 H5          -1.3630    -0.4170    -5.5080 hc         1 8VV       0.088700
     25 H6          -2.1710     1.0650    -5.0480 hc         1 8VV       0.088700
     26 H7          -4.1870    -0.9180    -5.2110 hx         1 8VV       0.091700
     27 H8          -1.6280    -1.5280    -8.4730 hx         1 8VV       0.091811
     28 H9          -0.9150    -1.4720    -6.8490 hx         1 8VV       0.091811
     29 H10         -1.7070    -0.0430    -7.4410 hx         1 8VV       0.091811
     30 H11         -3.5240    -2.0700    -8.7990 hx         1 8VV       0.091811
     31 H12         -4.4250    -0.6720    -8.1890 hx         1 8VV       0.091811
     32 H13         -4.7780    -2.3130    -7.5860 hx         1 8VV       0.091811
     33 H15         -3.0310    -3.5800    -6.8890 hx         1 8VV       0.091811
     34 H16         -3.6250    -2.8360    -5.3980 hx         1 8VV       0.091811
     35 H17         -1.8820    -2.8560    -5.7400 hx         1 8VV       0.091811
     36 H18          1.9010    -0.9910    -1.7710 hn         1 8VV       0.440467
     37 H19          3.0650    -1.1790    -0.6370 hn         1 8VV       0.440467
     38 H22         -3.6340    -1.4280    -0.8740 hn         1 8VV       0.348700
     39 C20         -1.7300    -1.1260    -7.4720 c3         1 8VV       0.090767
     40 C22         -4.0050    -1.6370    -7.9300 c3         1 8VV       0.090767
     41 C23         -2.8720    -2.7820    -6.1740 c3         1 8VV       0.090767
     42 H63          1.6400    -1.9690    -0.4790 hn         1 8VV       0.440467
@<TRIPOS>BOND
     1    40    19 1   
     2    18     9 1   
     3    17     9 1   
     4     9     8 1   
     5    39    19 1   
     6    19     8 1   
     7    19    41 1   
     8     8     7 1   
     9     7     5 1   
    10     5     6 2   
    11     5    16 1   
    12     6    15 1   
    13    16     4 2   
    14    15     4 1   
    15     4    13 1   
    16    13     2 1   
    17    13    14 2   
    18     2     1 1   
    19    12     1 1   
    20     1     3 1   
    21     3    10 1   
    22     3    11 1   
    23     1    20 1   
    24     2    21 1   
    25     2    22 1   
    26     6    23 1   
    27     7    24 1   
    28     7    25 1   
    29     8    26 1   
    30    39    27 1   
    31    39    28 1   
    32    39    29 1   
    33    40    30 1   
    34    40    31 1   
    35    40    32 1   
    36    41    33 1   
    37    41    34 1   
    38    41    35 1   
    39    12    36 1   
    40    12    37 1   
    41    15    38 1   
    42    42    12 1   
@<TRIPOS>SUBSTRUCTURE
     1 8VV         1 TEMP              0 ****  ****    0 ROOT
