@<TRIPOS>MOLECULE
8VV
   42    42     1     0     0
SMALL
bcc


@<TRIPOS>ATOM
      1 C1           1.5250     0.0000     0.0000 c3         1 8VV      -0.159500
      2 C2           0.0000     0.0000     0.0000 c3         1 8VV       0.053900
      3 C3           2.0030     0.0000     1.4230 c          1 8VV       0.964600
      4 C9          -1.7340    -1.1740    -1.6930 cc         1 8VV       0.229100
      5 C12         -2.3070    -0.5450    -3.6300 cd         1 8VV       0.293600
      6 C13         -3.4390    -0.9700    -2.9260 cc         1 8VV      -0.452600
      7 C14         -2.2550    -0.0150    -5.0430 c3         1 8VV      -0.050700
      8 C15         -3.4500    -0.4760    -5.8710 c3         1 8VV      -0.189500
      9 C16         -4.0500     0.7370    -6.5290 c          1 8VV       0.972600
     10 O4           1.8070    -1.0160     2.1220 o          1 8VV      -0.806300
     11 O5           2.5670     1.0260     1.8610 o          1 8VV      -0.806300
     12 N6           2.0780    -1.1270    -0.7960 nz         1 8VV       0.063400
     13 S7          -0.7330    -1.4950    -0.3710 sx         1 8VV      -0.091700
     14 O8          -1.5810    -1.9030     0.7730 o          1 8VV      -0.398200
     15 N10         -3.0530    -1.3650    -1.6870 na         1 8VV       0.413100
     16 N11         -1.2300    -0.6730    -2.8270 nd         1 8VV      -0.587000
     17 O17         -5.2970     0.8400    -6.5810 o          1 8VV      -0.814300
     18 O18         -3.2820     1.6100    -6.9890 o          1 8VV      -0.814300
     19 N19         -3.0150    -1.4900    -6.8560 n4         1 8VV       0.095200
     20 H1           1.8400     0.9370    -0.4430 hx         1 8VV       0.084700
     21 H2          -0.3300     0.2960     0.9890 h1         1 8VV       0.100700
     22 H3          -0.3450     0.7410    -0.7110 h1         1 8VV       0.100700
     23 H4          -4.4530    -0.9810    -3.3070 h4         1 8VV       0.171000
     24 H5          -1.3630    -0.4170    -5.5080 hc         1 8VV       0.059200
     25 H6          -2.1710     1.0650    -5.0480 hc         1 8VV       0.059200
     26 H7          -4.1870    -0.9180    -5.2110 hx         1 8VV       0.087700
     27 H8          -1.6280    -1.5280    -8.4730 hx         1 8VV       0.072033
     28 H9          -0.9150    -1.4720    -6.8490 hx         1 8VV       0.072033
     29 H10         -1.7070    -0.0430    -7.4410 hx         1 8VV       0.072033
     30 H11         -3.5240    -2.0700    -8.7990 hx         1 8VV       0.072033
     31 H12         -4.4250    -0.6720    -8.1890 hx         1 8VV       0.072033
     32 H13         -4.7780    -2.3130    -7.5860 hx         1 8VV       0.072033
     33 H15         -3.0310    -3.5800    -6.8890 hx         1 8VV       0.072033
     34 H16         -3.6250    -2.8360    -5.3980 hx         1 8VV       0.072033
     35 H17         -1.8820    -2.8560    -5.7400 hx         1 8VV       0.072033
     36 H18          1.9010    -0.9910    -1.7710 hn         1 8VV       0.218467
     37 H19          3.0650    -1.1790    -0.6370 hn         1 8VV       0.218467
     38 H22         -3.6340    -1.4280    -0.8740 hn         1 8VV       0.154700
     39 C20         -1.7300    -1.1260    -7.4720 c3         1 8VV      -0.011900
     40 C22         -4.0050    -1.6370    -7.9300 c3         1 8VV      -0.011900
     41 C23         -2.8720    -2.7820    -6.1740 c3         1 8VV      -0.011900
     42 H63          1.6400    -1.9690    -0.4790 hn         1 8VV       0.218467
@<TRIPOS>BOND
     1     1     2 1   
     2     1     3 1   
     3     1    12 1   
     4     1    20 1   
     5     2    13 1   
     6     2    21 1   
     7     2    22 1   
     8     3    10 1   
     9     3    11 1   
    10     4    13 1   
    11     4    15 1   
    12     4    16 2   
    13     5     6 2   
    14     5     7 1   
    15     5    16 1   
    16     6    15 1   
    17     6    23 1   
    18     7     8 1   
    19     7    24 1   
    20     7    25 1   
    21     8     9 1   
    22     8    19 1   
    23     8    26 1   
    24     9    17 1   
    25     9    18 1   
    26    12    36 1   
    27    12    37 1   
    28    12    42 1   
    29    13    14 2   
    30    15    38 1   
    31    19    39 1   
    32    19    40 1   
    33    19    41 1   
    34    27    39 1   
    35    28    39 1   
    36    29    39 1   
    37    30    40 1   
    38    31    40 1   
    39    32    40 1   
    40    33    41 1   
    41    34    41 1   
    42    35    41 1   
@<TRIPOS>SUBSTRUCTURE
     1 8VV         1 TEMP              0 ****  ****    0 ROOT
