@<TRIPOS>MOLECULE
molecule
   66    68     1     0     0
SMALL
bcc


@<TRIPOS>ATOM
      1 C1           0.0000     0.0000     0.0000 c          1 8VX       0.709500
      2 O2          -0.6010     0.9970    -0.3390 o          1 8VX      -0.640500
      3 C9           4.5420    -0.0230    -3.2450 ca         1 8VX      -0.005600
      4 C10          3.3400    -0.3070    -2.6230 ca         1 8VX      -0.082000
      5 C8           5.7360    -0.3780    -2.6400 ca         1 8VX      -0.085000
      6 C7           5.7290    -1.0120    -1.4130 ca         1 8VX      -0.210000
      7 C6           4.5240    -1.2930    -0.7860 ca         1 8VX       0.140100
      8 O23          4.5140    -1.9170     0.4210 os         1 8VX      -0.333900
      9 C24          5.7780    -2.3150     0.9560 c3         1 8VX       0.124700
     10 C5           3.3280    -0.9410    -1.3960 ca         1 8VX      -0.106300
     11 C4           2.0170    -1.2510    -0.7190 c3         1 8VX      -0.043100
     12 C3           1.5070     0.0000     0.0000 c3         1 8VX      -0.159700
     13 C11          2.0120     0.0000     1.4460 c3         1 8VX       0.253800
     14 N12          2.0020    -1.3740     1.9600 nu         1 8VX      -0.955200
     15 C13          0.8110    -2.0900     2.0010 c2         1 8VX       0.544200
     16 N14          0.3620    -2.5500     3.1230 n2         1 8VX      -0.426400
     17 N62          1.1070    -2.3820     4.2960 nh         1 8VX      -0.619700
     18 C63          1.6650    -3.5490     4.9840 c3         1 8VX       0.256100
     19 C68          1.3290    -1.0380     4.8370 c3         1 8VX       0.256100
     20 C15          0.0460    -2.3230     0.7190 c3         1 8VX       0.058700
     21 N16         -0.6850    -1.0950     0.3780 n          1 8VX      -0.470800
     22 C17         -2.1480    -1.0640     0.4450 c3         1 8VX       0.038000
     23 C19         -2.7210    -1.5520    -0.8610 c          1 8VX       0.642100
     24 O30         -1.9850    -1.9800    -1.7230 o          1 8VX      -0.589100
     25 N20         -4.0530    -1.5120    -1.0690 ns         1 8VX      -0.481100
     26 C21         -4.5970    -2.0890    -2.2210 ca         1 8VX       0.040600
     27 C25         -5.7070    -1.5160    -2.8280 ca         1 8VX      -0.063000
     28 C29         -4.0260    -3.2320    -2.7620 ca         1 8VX      -0.077000
     29 C28         -4.5680    -3.8010    -3.9000 ca         1 8VX      -0.133000
     30 C27         -5.6760    -3.2300    -4.4980 ca         1 8VX      -0.048000
     31 C26         -6.2430    -2.0890    -3.9640 ca         1 8VX      -0.278500
     32 S31         -7.6530    -1.3630    -4.7350 sy         1 8VX       1.191300
     33 O32         -8.2800    -2.4460    -5.4080 o          1 8VX      -0.619300
     34 O33         -8.3120    -0.6740    -3.6810 o          1 8VX      -0.619300
     35 C72         -6.9590    -0.1860    -5.9290 c3         1 8VX      -0.224300
     36 H1           2.4070    -0.0320    -3.0990 ha         1 8VX       0.157000
     37 H2           6.6770    -0.1590    -3.1300 ha         1 8VX       0.145000
     38 H3           6.6630    -1.2900    -0.9410 ha         1 8VX       0.141000
     39 H4           6.3770    -1.4350     1.1600 h1         1 8VX       0.044033
     40 H5           6.2920    -2.9430     0.2390 h1         1 8VX       0.044033
     41 H6           5.6240    -2.8670     1.8750 h1         1 8VX       0.044033
     42 H7           1.2920    -1.5620    -1.4610 hc         1 8VX       0.078700
     43 H8           2.1620    -2.0480     0.0010 hc         1 8VX       0.078700
     44 H9           1.8670     0.8870    -0.5070 hc         1 8VX       0.097700
     45 H10          3.0220     0.3890     1.4760 h1         1 8VX       0.051700
     46 H11          1.3630     0.6180     2.0550 h1         1 8VX       0.051700
     47 H13          2.6600    -3.3160     5.3420 h1         1 8VX       0.026700
     48 H14          1.7150    -4.3840     4.2960 h1         1 8VX       0.026700
     49 H15          1.0310    -3.8100     5.8230 h1         1 8VX       0.026700
     50 H16          2.3580    -0.7450     4.6660 h1         1 8VX       0.026700
     51 H17          0.6670    -0.3360     4.3440 h1         1 8VX       0.026700
     52 H18          1.1260    -1.0390     5.9010 h1         1 8VX       0.026700
     53 H19          0.7380    -2.5670    -0.0780 h1         1 8VX       0.087700
     54 H20         -0.6560    -3.1360     0.8590 h1         1 8VX       0.087700
     55 H21         -2.4860    -1.7050     1.2500 h1         1 8VX       0.085700
     56 H22         -2.4790    -0.0490     0.6280 h1         1 8VX       0.085700
     57 H23         -4.6540    -1.0950    -0.3860 hn         1 8VX       0.329500
     58 H24         -6.1520    -0.6210    -2.4100 ha         1 8VX       0.152000
     59 H25         -3.1580    -3.6790    -2.2940 ha         1 8VX       0.160000
     60 H26         -4.1240    -4.6940    -4.3230 ha         1 8VX       0.141000
     61 H27         -6.0980    -3.6780    -5.3900 ha         1 8VX       0.151000
     62 H28         -6.2690     0.4780    -5.4220 h1         1 8VX       0.099367
     63 H29         -6.4340    -0.7280    -6.7060 h1         1 8VX       0.099367
     64 H30         -7.7600     0.3940    -6.3710 h1         1 8VX       0.099367
     65 H12          2.8510    -1.7960     2.2810 hn         1 8VX       0.451800
     66 Cl2          4.5540     0.7740    -4.7870 cl         1 8VX      -0.106400
@<TRIPOS>BOND
     1     5     6 ar
     2     5     3 ar
     3     6     7 ar
     4    66     3 1
     5     9     8 1
     6     3     4 ar
     7     7     8 1
     8     7    10 ar
     9     4    10 ar
    10    10    11 1
    11    11    12 1
    12    18    17 1
    13    13    12 1
    14    13    14 1
    15    12     1 1
    16    14    15 1
    17    17    16 1
    18    17    19 1
    19    15    16 2
    20    15    20 1
    21     1     2 2
    22     1    21 1
    23    20    21 1
    24    21    22 1
    25    33    32 2
    26    24    23 2
    27    22    23 1
    28    34    32 2
    29    23    25 1
    30    32    35 1
    31    32    31 1
    32    27    31 ar
    33    27    26 ar
    34    25    26 1
    35    31    30 ar
    36    26    28 ar
    37    30    29 ar
    38    28    29 ar
    39     4    36 1
    40     5    37 1
    41     6    38 1
    42     9    39 1
    43     9    40 1
    44     9    41 1
    45    11    42 1
    46    11    43 1
    47    12    44 1
    48    13    45 1
    49    13    46 1
    50    18    47 1
    51    18    48 1
    52    18    49 1
    53    19    50 1
    54    19    51 1
    55    19    52 1
    56    20    53 1
    57    20    54 1
    58    22    55 1
    59    22    56 1
    60    25    57 1
    61    27    58 1
    62    28    59 1
    63    29    60 1
    64    30    61 1
    65    35    62 1
    66    35    63 1
    67    35    64 1
    68    14    65 1
@<TRIPOS>SUBSTRUCTURE
     1 8VX         1 TEMP              0 ****  ****    0 ROOT
