@<TRIPOS>MOLECULE
8VX
   66    68     1     0     0
SMALL
bcc


@<TRIPOS>ATOM
      1 C1           0.0000     0.0000     0.0000 c          1 8VX       0.633500
      2 O2          -0.6010     0.9970    -0.3390 o          1 8VX      -0.683500
      3 C9           4.5420    -0.0230    -3.2450 ca         1 8VX      -0.070600
      4 C10          3.3400    -0.3070    -2.6230 ca         1 8VX      -0.055000
      5 C8           5.7360    -0.3780    -2.6400 ca         1 8VX      -0.057000
      6 C7           5.7290    -1.0120    -1.4130 ca         1 8VX      -0.197000
      7 C6           4.5240    -1.2930    -0.7860 ca         1 8VX       0.150100
      8 O23          4.5140    -1.9170     0.4210 os         1 8VX      -0.315900
      9 C24          5.7780    -2.3150     0.9560 c3         1 8VX       0.240700
     10 C5           3.3280    -0.9410    -1.3960 ca         1 8VX      -0.115300
     11 C4           2.0170    -1.2510    -0.7190 c3         1 8VX      -0.011100
     12 C3           1.5070     0.0000     0.0000 c3         1 8VX      -0.139700
     13 C11          2.0120     0.0000     1.4460 c3         1 8VX       0.197800
     14 N12          2.0020    -1.3740     1.9600 nu         1 8VX      -0.586200
     15 C13          0.8110    -2.0900     2.0010 c2         1 8VX       0.419200
     16 N14          0.3620    -2.5500     3.1230 n2         1 8VX      -0.477400
     17 N62          1.1070    -2.3820     4.2960 nh         1 8VX      -0.353700
     18 C63          1.6650    -3.5490     4.9840 c3         1 8VX       0.251600
     19 C68          1.3290    -1.0380     4.8370 c3         1 8VX       0.251600
     20 C15          0.0460    -2.3230     0.7190 c3         1 8VX      -0.024300
     21 N16         -0.6850    -1.0950     0.3780 n          1 8VX      -0.112800
     22 C17         -2.1480    -1.0640     0.4450 c3         1 8VX      -0.020000
     23 C19         -2.7210    -1.5520    -0.8610 c          1 8VX       0.547100
     24 O30         -1.9850    -1.9800    -1.7230 o          1 8VX      -0.637100
     25 N20         -4.0530    -1.5120    -1.0690 ns         1 8VX      -0.030100
     26 C21         -4.5970    -2.0890    -2.2210 ca         1 8VX      -0.116400
     27 C25         -5.7070    -1.5160    -2.8280 ca         1 8VX      -0.027000
     28 C29         -4.0260    -3.2320    -2.7620 ca         1 8VX      -0.052000
     29 C28         -4.5680    -3.8010    -3.9000 ca         1 8VX      -0.112000
     30 C27         -5.6760    -3.2300    -4.4980 ca         1 8VX      -0.013000
     31 C26         -6.2430    -2.0890    -3.9640 ca         1 8VX      -0.139500
     32 S31         -7.6530    -1.3630    -4.7350 sy         1 8VX       0.873300
     33 O32         -8.2800    -2.4460    -5.4080 o          1 8VX      -0.589800
     34 O33         -8.3120    -0.6740    -3.6810 o          1 8VX      -0.589800
     35 C72         -6.9590    -0.1860    -5.9290 c3         1 8VX       0.031700
     36 H1           2.4070    -0.0320    -3.0990 ha         1 8VX       0.126000
     37 H2           6.6770    -0.1590    -3.1300 ha         1 8VX       0.113000
     38 H3           6.6630    -1.2900    -0.9410 ha         1 8VX       0.123000
     39 H4           5.6240    -2.8650     1.8760 h1         1 8VX      -0.000300
     40 H5           6.3780    -1.4350     1.1580 h1         1 8VX      -0.000300
     41 H6           6.2910    -2.9450     0.2400 h1         1 8VX      -0.000300
     42 H7           1.2920    -1.5620    -1.4610 hc         1 8VX       0.056200
     43 H8           2.1620    -2.0480     0.0010 hc         1 8VX       0.056200
     44 H9           1.8670     0.8870    -0.5070 hc         1 8VX       0.070700
     45 H10          3.0220     0.3890     1.4760 h1         1 8VX       0.022700
     46 H11          1.3630     0.6180     2.0550 h1         1 8VX       0.022700
     47 H13          1.6420    -4.4050     4.3200 h1         1 8VX      -0.004800
     48 H14          2.6890    -3.3430     5.2730 h1         1 8VX      -0.004800
     49 H15          1.0760    -3.7620     5.8680 h1         1 8VX      -0.004800
     50 H16          1.2230    -1.0600     5.9150 h1         1 8VX      -0.004800
     51 H17          2.3270    -0.7050     4.5800 h1         1 8VX      -0.004800
     52 H18          0.6010    -0.3550     4.4160 h1         1 8VX      -0.004800
     53 H19          0.7380    -2.5670    -0.0780 h1         1 8VX       0.062700
     54 H20         -0.6560    -3.1360     0.8590 h1         1 8VX       0.062700
     55 H21         -2.4860    -1.7050     1.2500 h1         1 8VX       0.051700
     56 H22         -2.4790    -0.0490     0.6280 h1         1 8VX       0.051700
     57 H23         -4.6530    -1.0920    -0.3870 hn         1 8VX       0.172500
     58 H24         -6.1520    -0.6210    -2.4100 ha         1 8VX       0.126000
     59 H25         -3.1580    -3.6790    -2.2940 ha         1 8VX       0.134000
     60 H26         -4.1240    -4.6940    -4.3230 ha         1 8VX       0.110000
     61 H27         -6.0980    -3.6780    -5.3900 ha         1 8VX       0.123000
     62 H28         -7.7600     0.2500    -6.5130 h1         1 8VX       0.060033
     63 H29         -6.4310     0.5970    -5.3980 h1         1 8VX       0.060033
     64 H30         -6.2720    -0.7030    -6.5870 h1         1 8VX       0.060033
     65 H12          2.8510    -1.7950     2.2810 hn         1 8VX       0.315800
     66 Cl2          4.5540     0.7740    -4.7870 cl         1 8VX      -0.023400
@<TRIPOS>BOND
     1     1     2 2   
     2     1    12 1   
     3     1    21 1   
     4     3     4 ar  
     5     3     5 ar  
     6     3    66 1   
     7     4    10 ar  
     8     4    36 1   
     9     5     6 ar  
    10     5    37 1   
    11     6     7 ar  
    12     6    38 1   
    13     7     8 1   
    14     7    10 ar  
    15     8     9 1   
    16     9    39 1   
    17     9    40 1   
    18     9    41 1   
    19    10    11 1   
    20    11    12 1   
    21    11    42 1   
    22    11    43 1   
    23    12    13 1   
    24    12    44 1   
    25    13    14 1   
    26    13    45 1   
    27    13    46 1   
    28    14    15 1   
    29    14    65 1   
    30    15    16 2   
    31    15    20 1   
    32    16    17 1   
    33    17    18 1   
    34    17    19 1   
    35    18    47 1   
    36    18    48 1   
    37    18    49 1   
    38    19    50 1   
    39    19    51 1   
    40    19    52 1   
    41    20    21 1   
    42    20    53 1   
    43    20    54 1   
    44    21    22 1   
    45    22    23 1   
    46    22    55 1   
    47    22    56 1   
    48    23    24 2   
    49    23    25 1   
    50    25    26 1   
    51    25    57 1   
    52    26    27 ar  
    53    26    28 ar  
    54    27    31 ar  
    55    27    58 1   
    56    28    29 ar  
    57    28    59 1   
    58    29    30 ar  
    59    29    60 1   
    60    30    31 ar  
    61    30    61 1   
    62    31    32 1   
    63    32    33 2   
    64    32    34 2   
    65    32    35 1   
    66    35    62 1   
    67    35    63 1   
    68    35    64 1   
@<TRIPOS>SUBSTRUCTURE
     1 8VX         1 TEMP              0 ****  ****    0 ROOT
