@<TRIPOS>MOLECULE
molecule
   18    18     1     0     0
SMALL
bcc


@<TRIPOS>ATOM
      1 C1           0.0000     0.0000     0.0000 ca         1 8VY      -0.095300
      2 C2           1.3820     0.0000     0.0000 ca         1 8VY      -0.096000
      3 C3           2.0740     0.0000     1.1970 ca         1 8VY      -0.095300
      4 C4           1.3820     0.0010     2.3940 ca         1 8VY      -0.105000
      5 C5           0.0010     0.0020     2.3950 ca         1 8VY      -0.124000
      6 C6          -0.6910     0.0080     1.1980 ca         1 8VY      -0.105000
      7 C1'         -0.7540    -0.0010    -1.3050 c3         1 8VY       0.053300
      8 C3'          3.5810    -0.0010     1.1960 c3         1 8VY       0.053300
      9 Br1         -1.0830    -1.8550    -1.8700 br         1 8VY      -0.173400
     10 H1           1.9230    -0.0030    -0.9380 ha         1 8VY       0.138000
     11 H2           1.9240    -0.0010     3.3320 ha         1 8VY       0.136000
     12 H3          -0.5400     0.0050     3.3330 ha         1 8VY       0.136000
     13 H4          -1.7740     0.0080     1.1990 ha         1 8VY       0.136000
     14 H5          -1.7000     0.5110    -1.1760 h1         1 8VY       0.078700
     15 H6          -0.1680     0.5090    -2.0610 h1         1 8VY       0.078700
     16 H7           3.9420    -0.5110     2.0810 h1         1 8VY       0.078700
     17 H8           3.9410    -0.5120     0.3120 h1         1 8VY       0.078700
     18 Br2          4.2380     1.8520     1.1950 br         1 8VY      -0.173400
@<TRIPOS>BOND
     1     5     4 ar  
     2     5     6 ar  
     3     4     3 ar  
     4     6     1 ar  
     5     3     8 1   
     6     3     2 ar  
     7     1     2 ar  
     8     1     7 1   
     9     7     9 1   
    10     2    10 1   
    11     4    11 1   
    12     5    12 1   
    13     6    13 1   
    14     7    14 1   
    15     7    15 1   
    16     8    16 1   
    17     8    17 1   
    18     8    18 1   
@<TRIPOS>SUBSTRUCTURE
     1 8VY         1 TEMP              0 ****  ****    0 ROOT
