@<TRIPOS>MOLECULE
8VZ
   57    58     1     0     0
SMALL
bcc


@<TRIPOS>ATOM
      1 O26          0.0000     0.0000     0.0000 o          1 8VZ      -0.663100
      2 C24          1.2120     0.0000     0.0000 c          1 8VZ       0.582100
      3 C25          1.9650     0.0000     1.3060 c3         1 8VZ      -0.067100
      4 N2           1.8870    -0.0060    -1.1670 ns         1 8VZ      -0.175900
      5 C2,          1.1540    -0.0120    -2.4360 c3         1 8VZ      -0.059300
      6 C1,          0.7960     1.4240    -2.8270 c3         1 8VZ       0.226500
      7 N1          -0.0900     2.0000    -1.8120 ns         1 8VZ      -0.205900
      8 C27          0.0030     3.3080    -1.5020 c          1 8VZ       0.581100
      9 C28         -0.9090     3.9020    -0.4590 c3         1 8VZ      -0.067100
     10 O29          0.8190     4.0080    -2.0620 o          1 8VZ      -0.654100
     11 C3,          2.0320    -0.6280    -3.5300 c3         1 8VZ       0.175100
     12 O3,          2.3100    -1.9920    -3.2080 oh         1 8VZ      -0.553800
     13 C4,          1.2870    -0.5580    -4.8660 c3         1 8VZ       0.131100
     14 C5,          0.9230     0.8990    -5.1630 c3         1 8VZ       0.166100
     15 C6,          0.1260     0.9700    -6.4670 c3         1 8VZ       0.217400
     16 O6,         -0.1070     2.3380    -6.8090 oh         1 8VZ      -0.577800
     17 O5,          0.1330     1.4200    -4.0930 os         1 8VZ      -0.390600
     18 O1           2.1250    -1.0630    -5.9070 os         1 8VZ      -0.375600
     19 C1           1.5530    -2.1510    -6.6370 c3         1 8VZ       0.385900
     20 C2           2.4810    -2.5340    -7.7930 c3         1 8VZ       0.149100
     21 O2           2.6040    -1.4320    -8.6930 oh         1 8VZ      -0.582800
     22 C3           1.8910    -3.7390    -8.5330 c3         1 8VZ       0.150100
     23 O3           2.7870    -4.1500    -9.5680 oh         1 8VZ      -0.575800
     24 C4           1.6930    -4.8880    -7.5410 c3         1 8VZ       0.133100
     25 O4           2.9600    -5.2910    -7.0170 oh         1 8VZ      -0.558800
     26 C5           0.7950    -4.4140    -6.3950 c3         1 8VZ       0.172100
     27 O5           1.3870    -3.2730    -5.7690 os         1 8VZ      -0.386600
     28 C6           0.6420    -5.5380    -5.3680 c3         1 8VZ       0.225400
     29 O6          -0.2880    -5.1370    -4.3590 oh         1 8VZ      -0.577800
     30 H1           2.7440     0.7520     1.2730 hc         1 8VZ       0.024700
     31 H2           1.2820     0.2230     2.1170 hc         1 8VZ       0.024700
     32 H3           2.4100    -0.9750     1.4660 hc         1 8VZ       0.024700
     33 H4           2.8860    -0.0570    -1.1660 hn         1 8VZ       0.172500
     34 H5           0.2460    -0.5940    -2.3330 h1         1 8VZ       0.082700
     35 H6           1.7030     2.0130    -2.8990 h2         1 8VZ       0.046700
     36 H7          -0.7370     1.4140    -1.3230 hn         1 8VZ       0.217500
     37 H8          -1.8910     4.0630    -0.8870 hc         1 8VZ       0.023367
     38 H9          -0.5040     4.8480    -0.1210 hc         1 8VZ       0.023367
     39 H10         -0.9880     3.2220     0.3810 hc         1 8VZ       0.023367
     40 H11          2.9590    -0.0720    -3.6040 h1         1 8VZ       0.011700
     41 H12          3.2080    -2.0740    -2.9320 ho         1 8VZ       0.386000
     42 H13          0.3820    -1.1500    -4.8040 h1         1 8VZ       0.049700
     43 H14          1.8300     1.4830    -5.2570 h1         1 8VZ       0.031700
     44 H15         -0.8230     0.4630    -6.3390 h1         1 8VZ       0.000200
     45 H16          0.6870     0.4900    -7.2600 h1         1 8VZ       0.000200
     46 H17         -0.5930     2.3820    -7.6160 ho         1 8VZ       0.386000
     47 H18          0.5880    -1.8580    -7.0330 h2         1 8VZ      -0.002300
     48 H19          3.4550    -2.7960    -7.3990 h1         1 8VZ       0.046700
     49 H20          3.4990    -1.3570    -8.9790 ho         1 8VZ       0.403000
     50 H21          0.9350    -3.4650    -8.9630 h1         1 8VZ       0.013700
     51 H22          2.2970    -4.3450   -10.3490 ho         1 8VZ       0.391000
     52 H23          1.2220    -5.7230    -8.0450 h1         1 8VZ       0.005700
     53 H24          3.2050    -6.1220    -7.3910 ho         1 8VZ       0.390000
     54 H25         -0.1770    -4.1440    -6.7890 h1         1 8VZ       0.015700
     55 H26          1.6030    -5.7440    -4.9120 h1         1 8VZ      -0.000300
     56 H27          0.2770    -6.4310    -5.8610 h1         1 8VZ      -0.000300
     57 H28         -0.6800    -5.9020    -3.9700 ho         1 8VZ       0.386000
@<TRIPOS>BOND
     1     1     2 2   
     2     2     3 1   
     3     2     4 1   
     4     3    30 1   
     5     3    31 1   
     6     3    32 1   
     7     4     5 1   
     8     4    33 1   
     9     5     6 1   
    10     5    11 1   
    11     5    34 1   
    12     6     7 1   
    13     6    17 1   
    14     6    35 1   
    15     7     8 1   
    16     7    36 1   
    17     8     9 1   
    18     8    10 2   
    19     9    37 1   
    20     9    38 1   
    21     9    39 1   
    22    11    12 1   
    23    11    13 1   
    24    11    40 1   
    25    12    41 1   
    26    13    14 1   
    27    13    18 1   
    28    13    42 1   
    29    14    15 1   
    30    14    17 1   
    31    14    43 1   
    32    15    16 1   
    33    15    44 1   
    34    15    45 1   
    35    16    46 1   
    36    18    19 1   
    37    19    20 1   
    38    19    27 1   
    39    19    47 1   
    40    20    21 1   
    41    20    22 1   
    42    20    48 1   
    43    21    49 1   
    44    22    23 1   
    45    22    24 1   
    46    22    50 1   
    47    23    51 1   
    48    24    25 1   
    49    24    26 1   
    50    24    52 1   
    51    25    53 1   
    52    26    27 1   
    53    26    28 1   
    54    26    54 1   
    55    28    29 1   
    56    28    55 1   
    57    28    56 1   
    58    29    57 1   
@<TRIPOS>SUBSTRUCTURE
     1 8VZ         1 TEMP              0 ****  ****    0 ROOT
