@<TRIPOS>MOLECULE
8W0
   64    67     1     0     0
SMALL
bcc


@<TRIPOS>ATOM
      1 CAA          0.0000     0.0000     0.0000 ca         1 8W0       0.362600
      2 CAB          1.4170     0.0000     0.0000 ca         1 8W0      -0.130300
      3 CAC          2.1190     0.0000     1.2190 ca         1 8W0      -0.082000
      4 CAD          1.4380     0.0000     2.3930 ca         1 8W0      -0.104000
      5 CAE          0.0330     0.0010     2.4100 ca         1 8W0      -0.133600
      6 CAF         -0.6860    -0.0040     1.2270 ca         1 8W0      -0.075300
      7 CAH         -0.0370     0.0020    -2.3220 ca         1 8W0       0.361600
      8 CAI          1.3500     0.0040    -2.3890 ca         1 8W0      -0.206600
      9 CAJ          2.0900     0.0020    -1.2340 ca         1 8W0      -0.039000
     10 CAK         -0.8990    -0.0050    -3.5600 c3         1 8W0      -0.067700
     11 CAL         -0.0930     0.4420    -4.7770 c3         1 8W0      -0.072700
     12 CAM          1.1900    -0.3930    -4.8440 c3         1 8W0      -0.011400
     13 CAN          2.1020     0.0140    -3.6940 c3         1 8W0       0.046900
     14 CAO         -0.9170     0.2220    -6.0480 c3         1 8W0      -0.049200
     15 CAR         -0.6850     0.0020     3.7020 c          1 8W0       0.606700
     16 CAU          1.1450    -1.3080     4.6650 c3         1 8W0      -0.034000
     17 CAV          0.9710    -2.7660     5.1070 c3         1 8W0       0.039000
     18 CAX         -1.0360    -2.1060     6.4980 c3         1 8W0       0.040000
     19 CAY         -0.8620    -0.6470     6.0560 c3         1 8W0       0.022700
     20 CAZ         -2.2360     0.0080     5.8960 c3         1 8W0      -0.017100
     21 CBA          0.7940    -3.4160     7.4600 c          1 8W0       0.701100
     22 CBD          2.4960    -4.6940     8.5410 c3         1 8W0       0.239400
     23 CBE          3.8490    -5.3360     8.2260 c3         1 8W0      -0.040400
     24 CBF          4.3870    -6.0300     9.4790 c3         1 8W0       0.013900
     25 NAG         -0.6600    -0.0010    -1.1590 nb         1 8W0      -0.545000
     26 NAP         -2.0980     1.0950    -6.0250 nz         1 8W0       0.080400
     27 NAS         -0.1540    -0.6290     4.7690 n          1 8W0      -0.134800
     28 NAW          0.2630    -2.7860     6.3950 n          1 8W0      -0.147800
     29 OAT         -1.7540     0.5710     3.8040 o          1 8W0      -0.634100
     30 OBB          0.1990    -3.4260     8.5190 o          1 8W0      -0.645000
     31 OBC          1.9850    -4.0360     7.3520 os         1 8W0      -0.430900
     32 H1           3.2020    -0.0010     1.2200 ha         1 8W0       0.117000
     33 H2           1.9850     0.0040     3.3280 ha         1 8W0       0.143000
     34 H3          -1.7690    -0.0030     1.2470 ha         1 8W0       0.139000
     35 H4           3.1530     0.2090    -1.2700 ha         1 8W0       0.123000
     36 H5          -1.2710    -1.0080    -3.7280 hc         1 8W0       0.022200
     37 H6          -1.7330     0.6720    -3.4170 hc         1 8W0       0.022200
     38 H7           0.1610     1.4910    -4.6790 hc         1 8W0       0.051700
     39 H8           1.6920    -0.2110    -5.7860 hc         1 8W0       0.030700
     40 H9           0.9430    -1.4440    -4.7550 hc         1 8W0       0.030700
     41 H10          2.4820     1.0110    -3.8780 hc         1 8W0       0.034700
     42 H11          2.9290    -0.6830    -3.6330 hc         1 8W0       0.034700
     43 H12         -0.3120     0.4560    -6.9160 hx         1 8W0       0.085700
     44 H13         -1.2340    -0.8130    -6.0990 hx         1 8W0       0.085700
     45 H14          1.8640    -0.8170     5.3090 h1         1 8W0       0.054700
     46 H15          1.4890    -1.2790     3.6380 h1         1 8W0       0.054700
     47 H16          0.3910    -3.3030     4.3660 h1         1 8W0       0.035700
     48 H17          1.9440    -3.2290     5.2210 h1         1 8W0       0.035700
     49 H18         -1.7550    -2.5970     5.8530 h1         1 8W0       0.049200
     50 H19         -1.3800    -2.1350     7.5250 h1         1 8W0       0.049200
     51 H20         -0.2820    -0.1110     6.7970 h1         1 8W0       0.035700
     52 H21         -2.1100     1.0570     5.6570 hc         1 8W0       0.029367
     53 H22         -2.7790    -0.4820     5.0970 hc         1 8W0       0.029367
     54 H23         -2.7910    -0.0880     6.8210 hc         1 8W0       0.029367
     55 H24          1.7980    -5.4590     8.8580 h1         1 8W0       0.015200
     56 H25          2.6170    -3.9650     9.3330 h1         1 8W0       0.015200
     57 H26          3.7270    -6.0640     7.4340 hc         1 8W0       0.017200
     58 H27          4.5470    -4.5700     7.9090 hc         1 8W0       0.017200
     59 H28          4.5090    -5.3020    10.2720 hc         1 8W0       0.005367
     60 H29          3.6890    -6.7950     9.7960 hc         1 8W0       0.005367
     61 H30          5.3450    -6.4840     9.2560 hc         1 8W0       0.005367
     62 H31         -2.4370     1.2230    -6.9580 hn         1 8W0       0.225800
     63 H32         -2.8130     0.6730    -5.4650 hn         1 8W0       0.225800
     64 HAP3        -1.8490     1.9820    -5.6350 hn         1 8W0       0.225800
@<TRIPOS>BOND
     1     1     2 ar  
     2     1     6 ar  
     3     1    25 ar  
     4     2     3 ar  
     5     2     9 ar  
     6     3     4 ar  
     7     3    32 1   
     8     4     5 ar  
     9     4    33 1   
    10     5     6 ar  
    11     5    15 1   
    12     6    34 1   
    13     7     8 ar  
    14     7    10 1   
    15     7    25 ar  
    16     8     9 ar  
    17     8    13 1   
    18     9    35 1   
    19    10    11 1   
    20    10    36 1   
    21    10    37 1   
    22    11    12 1   
    23    11    14 1   
    24    11    38 1   
    25    12    13 1   
    26    12    39 1   
    27    12    40 1   
    28    13    41 1   
    29    13    42 1   
    30    14    26 1   
    31    14    43 1   
    32    14    44 1   
    33    15    27 1   
    34    15    29 2   
    35    16    17 1   
    36    16    27 1   
    37    16    45 1   
    38    16    46 1   
    39    17    28 1   
    40    17    47 1   
    41    17    48 1   
    42    18    19 1   
    43    18    28 1   
    44    18    49 1   
    45    18    50 1   
    46    19    20 1   
    47    19    27 1   
    48    19    51 1   
    49    20    52 1   
    50    20    53 1   
    51    20    54 1   
    52    21    28 1   
    53    21    30 2   
    54    21    31 1   
    55    22    23 1   
    56    22    31 1   
    57    22    55 1   
    58    22    56 1   
    59    23    24 1   
    60    23    57 1   
    61    23    58 1   
    62    24    59 1   
    63    24    60 1   
    64    24    61 1   
    65    26    62 1   
    66    26    63 1   
    67    26    64 1   
@<TRIPOS>SUBSTRUCTURE
     1 8W0         1 TEMP              0 ****  ****    0 ROOT
