@<TRIPOS>MOLECULE
molecule
   64    67     1     0     0
SMALL
bcc


@<TRIPOS>ATOM
      1 CAA          0.0000     0.0000     0.0000 ca         1 8W0       0.415600
      2 CAB          1.4170     0.0000     0.0000 ca         1 8W0      -0.135300
      3 CAC          2.1190     0.0000     1.2190 ca         1 8W0      -0.118000
      4 CAD          1.4380     0.0000     2.3930 ca         1 8W0      -0.114000
      5 CAE          0.0330     0.0010     2.4100 ca         1 8W0      -0.123600
      6 CAF         -0.6860    -0.0040     1.2270 ca         1 8W0      -0.106300
      7 CAH         -0.0370     0.0020    -2.3220 ca         1 8W0       0.424600
      8 CAI          1.3500     0.0040    -2.3890 ca         1 8W0      -0.206600
      9 CAJ          2.0900     0.0020    -1.2340 ca         1 8W0      -0.065000
     10 CAK         -0.8990    -0.0050    -3.5600 c3         1 8W0      -0.127700
     11 CAL         -0.0930     0.4420    -4.7770 c3         1 8W0      -0.107700
     12 CAM          1.1900    -0.3930    -4.8440 c3         1 8W0      -0.067400
     13 CAN          2.1020     0.0140    -3.6940 c3         1 8W0      -0.027100
     14 CAO         -0.9170     0.2220    -6.0480 c3         1 8W0       0.095800
     15 CAR         -0.6850     0.0020     3.7020 c          1 8W0       0.673700
     16 CAU          1.1450    -1.3080     4.6650 c3         1 8W0       0.049000
     17 CAV          0.9710    -2.7660     5.1070 c3         1 8W0       0.092000
     18 CAX         -1.0360    -2.1060     6.4980 c3         1 8W0       0.109000
     19 CAY         -0.8620    -0.6470     6.0560 c3         1 8W0       0.100700
     20 CAZ         -2.2360     0.0080     5.8960 c3         1 8W0      -0.086100
     21 CBA          0.7940    -3.4160     7.4600 c          1 8W0       0.755100
     22 CBD          2.4960    -4.6940     8.5410 c3         1 8W0       0.165400
     23 CBE          3.8490    -5.3360     8.2260 c3         1 8W0      -0.089400
     24 CBF          4.3870    -6.0300     9.4790 c3         1 8W0      -0.090100
     25 NAG         -0.6600    -0.0010    -1.1590 nb         1 8W0      -0.672000
     26 NAP         -2.0980     1.0950    -6.0250 nz         1 8W0      -0.810600
     27 NAS         -0.1540    -0.6290     4.7690 n          1 8W0      -0.478800
     28 NAW          0.2630    -2.7860     6.3950 n          1 8W0      -0.484800
     29 OAT         -1.7540     0.5710     3.8040 o          1 8W0      -0.596100
     30 OBB          0.1990    -3.4260     8.5190 o          1 8W0      -0.602000
     31 OBC          1.9850    -4.0360     7.3520 os         1 8W0      -0.448900
     32 H1           3.2020    -0.0010     1.2200 ha         1 8W0       0.146000
     33 H2           1.9850     0.0040     3.3280 ha         1 8W0       0.163000
     34 H3          -1.7690    -0.0030     1.2470 ha         1 8W0       0.175000
     35 H4           3.1530     0.2090    -1.2700 ha         1 8W0       0.153000
     36 H5          -1.2710    -1.0080    -3.7280 hc         1 8W0       0.057200
     37 H6          -1.7330     0.6720    -3.4170 hc         1 8W0       0.057200
     38 H7           0.1610     1.4910    -4.6790 hc         1 8W0       0.076700
     39 H8           1.6920    -0.2110    -5.7860 hc         1 8W0       0.061700
     40 H9           0.9430    -1.4440    -4.7550 hc         1 8W0       0.061700
     41 H10          2.4820     1.0110    -3.8780 hc         1 8W0       0.069200
     42 H11          2.9290    -0.6830    -3.6330 hc         1 8W0       0.069200
     43 H12         -0.3120     0.4560    -6.9160 hx         1 8W0       0.111700
     44 H13         -1.2340    -0.8130    -6.0990 hx         1 8W0       0.111700
     45 H14          1.8640    -0.8170     5.3090 h1         1 8W0       0.070700
     46 H15          1.4890    -1.2790     3.6380 h1         1 8W0       0.070700
     47 H16          0.3910    -3.3030     4.3660 h1         1 8W0       0.066200
     48 H17          1.9440    -3.2290     5.2210 h1         1 8W0       0.066200
     49 H18         -1.7550    -2.5970     5.8530 h1         1 8W0       0.076700
     50 H19         -1.3800    -2.1350     7.5250 h1         1 8W0       0.076700
     51 H20         -0.2820    -0.1110     6.7970 h1         1 8W0       0.064700
     52 H21         -2.1100     1.0570     5.6570 hc         1 8W0       0.054700
     53 H22         -2.7790    -0.4820     5.0970 hc         1 8W0       0.054700
     54 H23         -2.7910    -0.0880     6.8210 hc         1 8W0       0.054700
     55 H24          1.7980    -5.4590     8.8580 h1         1 8W0       0.054200
     56 H25          2.6170    -3.9650     9.3330 h1         1 8W0       0.054200
     57 H26          3.7270    -6.0640     7.4340 hc         1 8W0       0.050200
     58 H27          4.5470    -4.5700     7.9090 hc         1 8W0       0.050200
     59 H28          4.5090    -5.3020    10.2720 hc         1 8W0       0.041033
     60 H29          3.6890    -6.7950     9.7960 hc         1 8W0       0.041033
     61 H30          5.3450    -6.4840     9.2560 hc         1 8W0       0.041033
     62 H31         -2.4370     1.2230    -6.9580 hn         1 8W0       0.458133
     63 H32         -2.8130     0.6730    -5.4650 hn         1 8W0       0.458133
     64 HAP3        -1.8490     1.9820    -5.6350 hn         1 8W0       0.458133
@<TRIPOS>BOND
     1    13    12 1
     2    13     8 1
     3     9     8 ar
     4     9     2 ar
     5     3     2 ar
     6     3     4 ar
     7    12    11 1
     8     8     7 ar
     9     2     1 ar
    10     4     5 ar
    11    20    19 1
    12    26    14 1
    13    11    14 1
    14    11    10 1
    15     7    10 1
    16     7    25 ar
    17     1    25 ar
    18     1     6 ar
    19     5     6 ar
    20     5    15 1
    21    19    27 1
    22    19    18 1
    23    24    23 1
    24    23    22 1
    25    15    27 1
    26    15    29 2
    27    27    16 1
    28    18    28 1
    29    30    21 2
    30    22    31 1
    31    21    28 1
    32    21    31 1
    33    28    17 1
    34    16    17 1
    35     3    32 1
    36     4    33 1
    37     6    34 1
    38     9    35 1
    39    10    36 1
    40    10    37 1
    41    11    38 1
    42    12    39 1
    43    12    40 1
    44    13    41 1
    45    13    42 1
    46    14    43 1
    47    14    44 1
    48    16    45 1
    49    16    46 1
    50    17    47 1
    51    17    48 1
    52    18    49 1
    53    18    50 1
    54    19    51 1
    55    20    52 1
    56    20    53 1
    57    20    54 1
    58    22    55 1
    59    22    56 1
    60    23    57 1
    61    23    58 1
    62    24    59 1
    63    24    60 1
    64    24    61 1
    65    26    62 1
    66    26    63 1
    67    64    26 1
@<TRIPOS>SUBSTRUCTURE
     1 8W0         1 TEMP              0 ****  ****    0 ROOT
