@<TRIPOS>MOLECULE
molecule
   47    50     1     0     0
SMALL
bcc


@<TRIPOS>ATOM
      1 CAJ          0.0000     0.0000     0.0000 cc         1 8W2      -0.183200
      2 CBA          1.4640     0.0000     0.0000 ca         1 8W2      -0.102800
      3 CAU          2.4350     0.0000     1.0050 ca         1 8W2       0.085400
      4 Cl1          1.9610    -0.0010     2.6760 cl         1 8W2      -0.100400
      5 CAH          3.7700     0.0010     0.6640 ca         1 8W2      -0.146000
      6 CAT          4.1530     0.0010    -0.6700 ca         1 8W2       0.054400
      7 Cl2          5.8400     0.0010    -1.0810 cl         1 8W2      -0.099400
      8 CAI          3.2060     0.0010    -1.6740 ca         1 8W2      -0.138000
      9 CAZ          1.8540     0.0000    -1.3520 ca         1 8W2      -0.020200
     10 NAR          0.7010     0.0000    -2.1050 na         1 8W2      -0.164400
     11 CAV         -0.3930     0.0000    -1.2840 cd         1 8W2      -0.049300
     12 CAN         -1.8260    -0.0010    -1.7500 c3         1 8W2       0.219000
     13 NAP         -2.2550     1.3790    -2.0170 n7         1 8W2      -0.821200
     14 CAL         -3.6500     1.4180    -2.4750 c3         1 8W2       0.161800
     15 CAK         -4.0590     2.8680    -2.7410 c3         1 8W2      -0.106400
     16 CAM         -5.5120     2.9080    -3.2170 c3         1 8W2       0.252800
     17 NAQ         -5.9040     4.2960    -3.4730 nu         1 8W2      -0.877200
     18 CAW         -7.1720     4.5820    -3.9120 cc         1 8W2       0.727800
     19 NAS         -8.0070     3.5900    -4.0930 nd         1 8W2      -0.733100
     20 CAY         -9.2740     3.8000    -4.5250 ca         1 8W2       0.241400
     21 CAF        -10.1660     2.7420    -4.7180 ca         1 8W2      -0.145000
     22 CAD        -11.4440     2.9990    -5.1580 ca         1 8W2      -0.081000
     23 CAE        -11.8600     4.3000    -5.4140 ca         1 8W2      -0.176000
     24 CAG        -11.0000     5.3600    -5.2310 ca         1 8W2      -0.039000
     25 CBB         -9.7020     5.1220    -4.7850 ca         1 8W2      -0.238600
     26 CAX         -8.7420     6.2150    -4.5740 c          1 8W2       0.723100
     27 OAA         -9.0510     7.3750    -4.7800 o          1 8W2      -0.623500
     28 NAO         -7.5050     5.8870    -4.1350 ns         1 8W2      -0.493400
     29 H1          -0.6440     0.0000     0.8710 ha         1 8W2       0.162000
     30 H2           4.5250     0.0020     1.4410 ha         1 8W2       0.157000
     31 H3           3.5170     0.0010    -2.7120 ha         1 8W2       0.144000
     32 H4           0.6680     0.0000    -3.1060 hn         1 8W2       0.304700
     33 H5          -1.9100    -0.5870    -2.6570 h1         1 8W2       0.049700
     34 H6          -2.4560    -0.4330    -0.9820 h1         1 8W2       0.049700
     35 H7          -2.1620     1.9240    -1.1820 hn         1 8W2       0.363800
     36 H9          -3.7460     0.8420    -3.3870 h1         1 8W2       0.038700
     37 H10         -4.2920     0.9960    -1.7110 h1         1 8W2       0.038700
     38 H11         -3.9610     3.4440    -1.8290 hc         1 8W2       0.054700
     39 H12         -3.4160     3.2900    -3.5050 hc         1 8W2       0.054700
     40 H13         -5.6090     2.3320    -4.1290 h1         1 8W2       0.059700
     41 H14         -6.1540     2.4870    -2.4530 h1         1 8W2       0.059700
     42 H15         -5.2460     5.0360    -3.3290 hn         1 8W2       0.443800
     43 H16         -9.8520     1.7240    -4.5220 ha         1 8W2       0.145000
     44 H17        -12.1340     2.1780    -5.3080 ha         1 8W2       0.131000
     45 H18        -12.8700     4.4820    -5.7600 ha         1 8W2       0.134000
     46 H19        -11.3310     6.3710    -5.4320 ha         1 8W2       0.151000
     47 H20         -6.8290     6.6060    -3.9730 hn         1 8W2       0.329500
@<TRIPOS>BOND
     1     4     3 1
     2     1     2 1
     3     1    11 2
     4     3     2 ar
     5     3     5 ar
     6     2     9 ar
     7     5     6 ar
     8    11    10 1
     9    11    12 1
    10     6     7 1
    11     6     8 ar
    12     9    10 1
    13     9     8 ar
    14    12    13 1
    15    13    14 1
    16    14    15 1
    17    15    16 1
    18    16    17 1
    19    17    18 1
    20    18    19 2
    21    18    28 1
    22    19    20 1
    23    28    26 1
    24    20    21 ar
    25    20    25 ar
    26    26    25 1
    27    26    27 2
    28    21    22 ar
    29    25    24 ar
    30    22    23 ar
    31    24    23 ar
    32     1    29 1
    33     5    30 1
    34     8    31 1
    35    10    32 1
    36    12    33 1
    37    12    34 1
    38    13    35 1
    39    14    36 1
    40    14    37 1
    41    15    38 1
    42    15    39 1
    43    16    40 1
    44    16    41 1
    45    17    42 1
    46    21    43 1
    47    22    44 1
    48    23    45 1
    49    24    46 1
    50    28    47 1
@<TRIPOS>SUBSTRUCTURE
     1 8W2         1 TEMP              0 ****  ****    0 ROOT
