@<TRIPOS>MOLECULE
8W2
   47    50     1     0     0
SMALL
bcc


@<TRIPOS>ATOM
      1 CAJ          0.0000     0.0000     0.0000 cc         1 8W2      -0.149200
      2 CBA          1.4640     0.0000     0.0000 ca         1 8W2      -0.105800
      3 CAU          2.4350     0.0000     1.0050 ca         1 8W2       0.035400
      4 Cl1          1.9610    -0.0010     2.6760 cl         1 8W2      -0.025400
      5 CAH          3.7700     0.0010     0.6640 ca         1 8W2      -0.131000
      6 CAT          4.1530     0.0010    -0.6700 ca         1 8W2      -0.008600
      7 Cl2          5.8400     0.0010    -1.0810 cl         1 8W2      -0.026400
      8 CAI          3.2060     0.0010    -1.6740 ca         1 8W2      -0.101000
      9 CAZ          1.8540     0.0000    -1.3520 ca         1 8W2      -0.210200
     10 NAR          0.7010     0.0000    -2.1050 na         1 8W2       0.384600
     11 CAV         -0.3930     0.0000    -1.2840 cd         1 8W2      -0.255300
     12 CAN         -1.8260    -0.0010    -1.7500 c3         1 8W2       0.235000
     13 NAP         -2.2550     1.3790    -2.0170 n7         1 8W2      -0.595200
     14 CAL         -3.6500     1.4180    -2.4750 c3         1 8W2       0.151800
     15 CAK         -4.0590     2.8680    -2.7410 c3         1 8W2      -0.044400
     16 CAM         -5.5120     2.9080    -3.2170 c3         1 8W2       0.176800
     17 NAQ         -5.9040     4.2960    -3.4730 nu         1 8W2      -0.467200
     18 CAW         -7.1720     4.5820    -3.9120 cc         1 8W2       0.400800
     19 NAS         -8.0070     3.5900    -4.0930 nd         1 8W2      -0.647100
     20 CAY         -9.2740     3.8000    -4.5250 ca         1 8W2       0.206400
     21 CAF        -10.1660     2.7420    -4.7180 ca         1 8W2      -0.124000
     22 CAD        -11.4440     2.9990    -5.1580 ca         1 8W2      -0.051000
     23 CAE        -11.8600     4.3000    -5.4140 ca         1 8W2      -0.154000
     24 CAG        -11.0000     5.3600    -5.2310 ca         1 8W2      -0.002000
     25 CBB         -9.7020     5.1220    -4.7850 ca         1 8W2      -0.249600
     26 CAX         -8.7420     6.2150    -4.5740 c          1 8W2       0.638100
     27 OAA         -9.0510     7.3750    -4.7800 o          1 8W2      -0.665500
     28 NAO         -7.5050     5.8870    -4.1350 ns         1 8W2      -0.042400
     29 H1          -0.6440     0.0000     0.8710 ha         1 8W2       0.136000
     30 H2           4.5250     0.0020     1.4410 ha         1 8W2       0.127000
     31 H3           3.5170     0.0010    -2.7120 ha         1 8W2       0.114000
     32 H4           0.6680     0.0000    -3.1060 hn         1 8W2       0.118700
     33 H5          -1.9100    -0.5870    -2.6570 h1         1 8W2       0.014200
     34 H6          -2.4560    -0.4330    -0.9820 h1         1 8W2       0.014200
     35 H7          -2.1620     1.9240    -1.1820 hn         1 8W2       0.263800
     36 H9          -3.7460     0.8420    -3.3870 h1         1 8W2       0.011200
     37 H10         -4.2920     0.9960    -1.7110 h1         1 8W2       0.011200
     38 H11         -3.9610     3.4440    -1.8290 hc         1 8W2       0.022700
     39 H12         -3.4160     3.2900    -3.5050 hc         1 8W2       0.022700
     40 H13         -5.6090     2.3320    -4.1290 h1         1 8W2       0.031700
     41 H14         -6.1540     2.4870    -2.4530 h1         1 8W2       0.031700
     42 H15         -5.2460     5.0360    -3.3290 hn         1 8W2       0.291800
     43 H16         -9.8520     1.7240    -4.5220 ha         1 8W2       0.117000
     44 H17        -12.1340     2.1780    -5.3080 ha         1 8W2       0.099000
     45 H18        -12.8700     4.4820    -5.7600 ha         1 8W2       0.107000
     46 H19        -11.3310     6.3710    -5.4320 ha         1 8W2       0.120000
     47 H20         -6.8290     6.6060    -3.9730 hn         1 8W2       0.176500
@<TRIPOS>BOND
     1     1     2 1   
     2     1    11 2   
     3     1    29 1   
     4     2     3 ar  
     5     2     9 ar  
     6     3     4 1   
     7     3     5 ar  
     8     5     6 ar  
     9     5    30 1   
    10     6     7 1   
    11     6     8 ar  
    12     8     9 ar  
    13     8    31 1   
    14     9    10 1   
    15    10    11 1   
    16    10    32 1   
    17    11    12 1   
    18    12    13 1   
    19    12    33 1   
    20    12    34 1   
    21    13    14 1   
    22    13    35 1   
    23    14    15 1   
    24    14    36 1   
    25    14    37 1   
    26    15    16 1   
    27    15    38 1   
    28    15    39 1   
    29    16    17 1   
    30    16    40 1   
    31    16    41 1   
    32    17    18 1   
    33    17    42 1   
    34    18    19 2   
    35    18    28 1   
    36    19    20 1   
    37    20    21 ar  
    38    20    25 ar  
    39    21    22 ar  
    40    21    43 1   
    41    22    23 ar  
    42    22    44 1   
    43    23    24 ar  
    44    23    45 1   
    45    24    25 ar  
    46    24    46 1   
    47    25    26 1   
    48    26    27 2   
    49    26    28 1   
    50    28    47 1   
@<TRIPOS>SUBSTRUCTURE
     1 8W2         1 TEMP              0 ****  ****    0 ROOT
