@<TRIPOS>MOLECULE
molecule
   73    76     1     0     0
SMALL
bcc


@<TRIPOS>ATOM
      1 C1           0.0000     0.0000     0.0000 c          1 8W3       0.699500
      2 O2          -0.6020     0.9960    -0.3410 o          1 8W3      -0.561500
      3 C9           4.5660    -0.0150    -3.2180 ca         1 8W3      -0.005600
      4 C10          3.3560    -0.3010    -2.6080 ca         1 8W3      -0.081000
      5 C8           5.7530    -0.3760    -2.6070 ca         1 8W3      -0.088000
      6 C7           5.7350    -1.0180    -1.3850 ca         1 8W3      -0.212000
      7 C6           4.5240    -1.3010    -0.7690 ca         1 8W3       0.142100
      8 O23          4.5040    -1.9330     0.4340 os         1 8W3      -0.329900
      9 C24          5.7590    -2.3790     0.9530 c3         1 8W3       0.124700
     10 C5           3.3340    -0.9440    -1.3860 ca         1 8W3      -0.102300
     11 C4           2.0180    -1.2500    -0.7190 c3         1 8W3      -0.043100
     12 C3           1.5070     0.0000     0.0000 c3         1 8W3      -0.169700
     13 C11          2.0110     0.0000     1.4470 c3         1 8W3       0.256800
     14 N12          1.9980    -1.3740     1.9610 nu         1 8W3      -0.952200
     15 C13          0.8160    -2.0830     2.0050 c2         1 8W3       0.574200
     16 N14          0.3680    -2.5370     3.1280 n2         1 8W3      -0.458200
     17 O62          1.0930    -2.3100     4.3230 os         1 8W3      -0.121600
     18 C63          0.5120    -2.8410     5.4310 ca         1 8W3       0.112100
     19 C68         -0.3960    -2.0930     6.1670 ca         1 8W3      -0.124500
     20 C67         -0.9880    -2.6370     7.2900 ca         1 8W3      -0.126000
     21 C66         -0.6780    -3.9260     7.6810 ca         1 8W3      -0.126000
     22 C65          0.2260    -4.6740     6.9490 ca         1 8W3      -0.126000
     23 C64          0.8220    -4.1350     5.8260 ca         1 8W3      -0.124500
     24 C15          0.0500    -2.3210     0.7250 c3         1 8W3       0.037700
     25 N16         -0.6830    -1.0940     0.3810 n          1 8W3      -0.495400
     26 C17         -2.0290    -1.0690     0.4410 c          1 8W3       0.771100
     27 O18         -2.6270    -0.0290     0.2450 o          1 8W3      -0.600100
     28 N19         -2.7140    -2.1970     0.7170 ns         1 8W3      -0.582900
     29 C20         -4.1780    -2.1950     0.6780 c3         1 8W3       0.184000
     30 C30         -4.7220    -1.7110     2.0230 c3         1 8W3      -0.094400
     31 C35         -4.3210    -0.2500     2.2410 c3         1 8W3      -0.094100
     32 C21         -4.6760    -3.5900     0.4070 ca         1 8W3      -0.087300
     33 C25         -5.7480    -3.7830    -0.4400 ca         1 8W3      -0.227000
     34 C26         -6.2120    -5.0680    -0.6930 ca         1 8W3       0.225600
     35 N57         -7.2910    -5.2650    -1.5460 nv         1 8W3      -0.915200
     36 C29         -4.0510    -4.6720     1.0060 ca         1 8W3      -0.219000
     37 C28         -4.4970    -5.9540     0.7680 ca         1 8W3      -0.055000
     38 C27         -5.5850    -6.1670    -0.0830 ca         1 8W3      -0.169600
     39 C31         -6.0660    -7.5340    -0.3440 c          1 8W3       0.895200
     40 O32         -6.9440    -7.7230    -1.1620 o          1 8W3      -0.842800
     41 O33         -5.5340    -8.5760     0.3260 o          1 8W3      -0.842800
     42 H1           2.4270    -0.0190    -3.0890 ha         1 8W3       0.158000
     43 H2           6.6980    -0.1540    -3.0880 ha         1 8W3       0.142000
     44 H3           6.6630    -1.3400    -0.9290 ha         1 8W3       0.139000
     45 H4           5.5970    -2.9160     1.8790 h1         1 8W3       0.043367
     46 H5           6.2340    -3.0350     0.2340 h1         1 8W3       0.043367
     47 H6           6.3970    -1.5240     1.1390 h1         1 8W3       0.043367
     48 H7           1.2970    -1.5560    -1.4670 hc         1 8W3       0.075700
     49 H8           2.1550    -2.0500    -0.0010 hc         1 8W3       0.075700
     50 H9           1.8670     0.8870    -0.5070 hc         1 8W3       0.094700
     51 H10          1.3620     0.6190     2.0550 h1         1 8W3       0.054700
     52 H11         -0.6390    -1.0820     5.8610 ha         1 8W3       0.140000
     53 H12         -1.6970    -2.0530     7.8640 ha         1 8W3       0.130500
     54 H13         -1.1440    -4.3510     8.5620 ha         1 8W3       0.128000
     55 H14          0.4670    -5.6840     7.2570 ha         1 8W3       0.130500
     56 H15          1.5300    -4.7210     5.2530 ha         1 8W3       0.140000
     57 H16         -0.6500    -3.1350     0.8670 h1         1 8W3       0.093700
     58 H17          0.7430    -2.5650    -0.0720 h1         1 8W3       0.093700
     59 H18         -2.2210    -3.0340     0.9590 hn         1 8W3       0.321500
     60 H19         -4.5170    -1.5310    -0.1080 h1         1 8W3       0.074700
     61 H20         -4.3120    -2.3200     2.8190 hc         1 8W3       0.048200
     62 H21         -5.8030    -1.7920     2.0260 hc         1 8W3       0.048200
     63 H22         -3.2800    -0.2020     2.5380 hc         1 8W3       0.035033
     64 H23         -4.4590     0.3030     1.3200 hc         1 8W3       0.035033
     65 H24         -4.9380     0.1830     3.0180 hc         1 8W3       0.035033
     66 H25         -6.2280    -2.9330    -0.9090 ha         1 8W3       0.112000
     67 H26         -7.4760    -4.6080    -2.2780 hn         1 8W3       0.434300
     68 H27         -7.9070    -6.0400    -1.4020 hn         1 8W3       0.434300
     69 H28         -3.2070    -4.5100     1.6660 ha         1 8W3       0.099000
     70 H29         -4.0060    -6.7960     1.2410 ha         1 8W3       0.153000
     71 H31          3.0220     0.3870     1.4770 h1         1 8W3       0.054700
     72 H32          2.8480    -1.7970     2.2780 hn         1 8W3       0.453800
     73 Cl2          4.5910     0.7920    -4.7560 cl         1 8W3      -0.112400
@<TRIPOS>BOND
     1    20    21 ar  
     2    20    19 ar  
     3    21    22 ar  
     4    19    18 ar  
     5    22    23 ar  
     6    18    23 ar  
     7    18    17 1   
     8    27    26 2   
     9    16    17 1   
    10    16    15 2   
    11    30    29 1   
    12    30    31 1   
    13    29    32 1   
    14    29    28 1   
    15    26    28 1   
    16    26    25 1   
    17    36    32 ar  
    18    36    37 ar  
    19    24    15 1   
    20    24    25 1   
    21    15    14 1   
    22    32    33 ar  
    23    37    38 ar  
    24    25     1 1   
    25    14    13 1   
    26    33    34 ar  
    27    38    34 ar  
    28    38    39 1   
    29    40    39 1   
    30     1     2 2   
    31     1    12 1   
    32    34    35 1   
    33    39    41 1   
    34    13    12 1   
    35    12    11 1   
    36     9     8 1   
    37     8     7 1   
    38    11    10 1   
    39     7    10 ar  
    40     7     6 ar  
    41    10     4 ar  
    42     6     5 ar  
    43     4     3 ar  
    44     5     3 ar  
    45     3    73 1   
    46     4    42 1   
    47     5    43 1   
    48     6    44 1   
    49     9    45 1   
    50     9    46 1   
    51     9    47 1   
    52    11    48 1   
    53    11    49 1   
    54    12    50 1   
    55    13    51 1   
    56    19    52 1   
    57    20    53 1   
    58    21    54 1   
    59    22    55 1   
    60    23    56 1   
    61    24    57 1   
    62    24    58 1   
    63    28    59 1   
    64    29    60 1   
    65    30    61 1   
    66    30    62 1   
    67    31    63 1   
    68    31    64 1   
    69    31    65 1   
    70    33    66 1   
    71    35    67 1   
    72    35    68 1   
    73    36    69 1   
    74    37    70 1   
    75    13    71 1   
    76    14    72 1   
@<TRIPOS>SUBSTRUCTURE
     1 8W3         1 TEMP              0 ****  ****    0 ROOT
