@<TRIPOS>MOLECULE
8W3
   73    76     1     0     0
SMALL
bcc


@<TRIPOS>ATOM
      1 C1           0.0000     0.0000     0.0000 c          1 8W3       0.613500
      2 O2          -0.6020     0.9960    -0.3410 o          1 8W3      -0.591500
      3 C9           4.5660    -0.0150    -3.2180 ca         1 8W3      -0.069600
      4 C10          3.3560    -0.3010    -2.6080 ca         1 8W3      -0.054000
      5 C8           5.7530    -0.3760    -2.6070 ca         1 8W3      -0.061000
      6 C7           5.7350    -1.0180    -1.3850 ca         1 8W3      -0.199000
      7 C6           4.5240    -1.3010    -0.7690 ca         1 8W3       0.152100
      8 O23          4.5040    -1.9330     0.4340 os         1 8W3      -0.310900
      9 C24          5.7590    -2.3790     0.9530 c3         1 8W3       0.241700
     10 C5           3.3340    -0.9440    -1.3860 ca         1 8W3      -0.111300
     11 C4           2.0180    -1.2500    -0.7190 c3         1 8W3      -0.009100
     12 C3           1.5070     0.0000     0.0000 c3         1 8W3      -0.149700
     13 C11          2.0110     0.0000     1.4470 c3         1 8W3       0.200800
     14 N12          1.9980    -1.3740     1.9610 nu         1 8W3      -0.577200
     15 C13          0.8160    -2.0830     2.0050 c2         1 8W3       0.427200
     16 N14          0.3680    -2.5370     3.1280 n2         1 8W3      -0.418200
     17 O62          1.0930    -2.3100     4.3230 os         1 8W3      -0.108600
     18 C63          0.5120    -2.8410     5.4310 ca         1 8W3       0.114100
     19 C68         -0.3960    -2.0930     6.1670 ca         1 8W3      -0.100500
     20 C67         -0.9880    -2.6370     7.2900 ca         1 8W3      -0.094000
     21 C66         -0.6780    -3.9260     7.6810 ca         1 8W3      -0.099000
     22 C65          0.2260    -4.6740     6.9490 ca         1 8W3      -0.094000
     23 C64          0.8220    -4.1350     5.8260 ca         1 8W3      -0.100500
     24 C15          0.0500    -2.3210     0.7250 c3         1 8W3      -0.057300
     25 N16         -0.6830    -1.0940     0.3810 n          1 8W3      -0.129400
     26 C17         -2.0290    -1.0690     0.4410 c          1 8W3       0.572100
     27 O18         -2.6270    -0.0290     0.2450 o          1 8W3      -0.641100
     28 N19         -2.7140    -2.1970     0.7170 ns         1 8W3      -0.212900
     29 C20         -4.1780    -2.1950     0.6780 c3         1 8W3       0.100000
     30 C30         -4.7220    -1.7110     2.0230 c3         1 8W3      -0.040400
     31 C35         -4.3210    -0.2500     2.2410 c3         1 8W3      -0.021100
     32 C21         -4.6760    -3.5900     0.4070 ca         1 8W3      -0.134300
     33 C25         -5.7480    -3.7830    -0.4400 ca         1 8W3      -0.151000
     34 C26         -6.2120    -5.0680    -0.6930 ca         1 8W3       0.061600
     35 N57         -7.2910    -5.2650    -1.5460 nv         1 8W3      -0.504200
     36 C29         -4.0510    -4.6720     1.0060 ca         1 8W3      -0.166000
     37 C28         -4.4970    -5.9540     0.7680 ca         1 8W3      -0.051000
     38 C27         -5.5850    -6.1670    -0.0830 ca         1 8W3      -0.119600
     39 C31         -6.0660    -7.5340    -0.3440 c          1 8W3       0.976200
     40 O32         -6.9440    -7.7230    -1.1620 o          1 8W3      -0.885300
     41 O33         -5.5340    -8.5760     0.3260 o          1 8W3      -0.885300
     42 H1           2.4270    -0.0360    -3.0980 ha         1 8W3       0.126000
     43 H2           6.6980    -0.1530    -3.0880 ha         1 8W3       0.110000
     44 H3           6.6640    -1.3360    -0.9260 ha         1 8W3       0.122000
     45 H4           5.5960    -2.9210     1.8770 h1         1 8W3      -0.000633
     46 H5           6.3950    -1.5230     1.1440 h1         1 8W3      -0.000633
     47 H6           6.2370    -3.0310     0.2320 h1         1 8W3      -0.000633
     48 H7           2.1550    -2.0500    -0.0010 hc         1 8W3       0.052200
     49 H8           1.2970    -1.5560    -1.4670 hc         1 8W3       0.052200
     50 H9           1.8670     0.8870    -0.5070 hc         1 8W3       0.067700
     51 H10          3.0220     0.3870     1.4770 h1         1 8W3       0.024200
     52 H11         -0.6390    -1.0820     5.8610 ha         1 8W3       0.112000
     53 H12         -1.6960    -2.0530     7.8640 ha         1 8W3       0.103000
     54 H13         -1.1440    -4.3510     8.5620 ha         1 8W3       0.101000
     55 H14          0.4670    -5.6840     7.2570 ha         1 8W3       0.103000
     56 H15          1.5300    -4.7210     5.2530 ha         1 8W3       0.112000
     57 H16          0.7430    -2.5650    -0.0720 h1         1 8W3       0.069700
     58 H17         -0.6500    -3.1350     0.8670 h1         1 8W3       0.069700
     59 H18         -2.2200    -3.0440     0.9200 hn         1 8W3       0.194500
     60 H19         -4.5170    -1.5310    -0.1080 h1         1 8W3       0.051700
     61 H20         -5.8030    -1.7920     2.0260 hc         1 8W3       0.019700
     62 H21         -4.3120    -2.3200     2.8190 hc         1 8W3       0.019700
     63 H22         -4.4570     0.3030     1.3190 hc         1 8W3       0.009700
     64 H23         -4.9400     0.1830     3.0170 hc         1 8W3       0.009700
     65 H24         -3.2800    -0.2020     2.5400 hc         1 8W3       0.009700
     66 H25         -6.2110    -2.9350    -0.9290 ha         1 8W3       0.097000
     67 H26         -7.1910    -5.0930    -2.5260 hn         1 8W3       0.264800
     68 H27         -8.1820    -5.5270    -1.1720 hn         1 8W3       0.264800
     69 H28         -3.2070    -4.5100     1.6660 ha         1 8W3       0.087000
     70 H29         -4.0060    -6.7960     1.2410 ha         1 8W3       0.128000
     71 H31          1.3620     0.6190     2.0550 h1         1 8W3       0.024200
     72 H32          2.8480    -1.7970     2.2800 hn         1 8W3       0.312800
     73 Cl2          4.5910     0.7920    -4.7560 cl         1 8W3      -0.029400
@<TRIPOS>BOND
     1     1     2 2   
     2     1    12 1   
     3     1    25 1   
     4     3     4 ar  
     5     3     5 ar  
     6     3    73 1   
     7     4    10 ar  
     8     4    42 1   
     9     5     6 ar  
    10     5    43 1   
    11     6     7 ar  
    12     6    44 1   
    13     7     8 1   
    14     7    10 ar  
    15     8     9 1   
    16     9    45 1   
    17     9    46 1   
    18     9    47 1   
    19    10    11 1   
    20    11    12 1   
    21    11    48 1   
    22    11    49 1   
    23    12    13 1   
    24    12    50 1   
    25    13    14 1   
    26    13    51 1   
    27    13    71 1   
    28    14    15 1   
    29    14    72 1   
    30    15    16 2   
    31    15    24 1   
    32    16    17 1   
    33    17    18 1   
    34    18    19 ar  
    35    18    23 ar  
    36    19    20 ar  
    37    19    52 1   
    38    20    21 ar  
    39    20    53 1   
    40    21    22 ar  
    41    21    54 1   
    42    22    23 ar  
    43    22    55 1   
    44    23    56 1   
    45    24    25 1   
    46    24    57 1   
    47    24    58 1   
    48    25    26 1   
    49    26    27 2   
    50    26    28 1   
    51    28    29 1   
    52    28    59 1   
    53    29    30 1   
    54    29    32 1   
    55    29    60 1   
    56    30    31 1   
    57    30    61 1   
    58    30    62 1   
    59    31    63 1   
    60    31    64 1   
    61    31    65 1   
    62    32    33 ar  
    63    32    36 ar  
    64    33    34 ar  
    65    33    66 1   
    66    34    35 1   
    67    34    38 ar  
    68    35    67 1   
    69    35    68 1   
    70    36    37 ar  
    71    36    69 1   
    72    37    38 ar  
    73    37    70 1   
    74    38    39 1   
    75    39    40 1   
    76    39    41 1   
@<TRIPOS>SUBSTRUCTURE
     1 8W3         1 TEMP              0 ****  ****    0 ROOT
