@<TRIPOS>MOLECULE
molecule
   90    95     1     0     0
SMALL
bcc


@<TRIPOS>ATOM
      1 C21          0.0000     0.0000     0.0000 ca         1 8W4      -0.115500
      2 C23          0.0010     0.0120     2.3950 ca         1 8W4      -0.128000
      3 C31          7.4620     1.7170    -2.7110 c3         1 8W4       0.062000
      4 C30          6.6830     1.3100    -1.4600 c3         1 8W4       0.140800
      5 C28          4.6420     0.8740    -2.6700 c3         1 8W4       0.087500
      6 C11         -3.7320     2.0960    -5.4790 c3         1 8W4      -0.091100
      7 C16          0.4050     2.6650    -1.0390 c          1 8W4       0.676700
      8 C15         -0.8830     3.3260    -1.3310 ca         1 8W4      -0.170600
      9 C13         -2.5730     3.9920    -2.9120 ca         1 8W4      -0.110800
     10 C12         -3.2640     4.6540    -1.8850 ca         1 8W4      -0.030200
     11 C20          1.3820     0.0000     0.0000 ca         1 8W4      -0.067300
     12 C19          2.1370     0.0000    -1.3050 c3         1 8W4      -0.043100
     13 C18          2.3910     1.4430    -1.7460 c3         1 8W4       0.113700
     14 C24          1.3830    -0.0010     2.3950 ca         1 8W4      -0.122500
     15 C26          3.2630     1.4450    -3.0040 c3         1 8W4       0.148100
     16 S02         -3.8190     6.7170     0.5590 s6         1 8W4       1.353900
     17 C03         -4.3590     7.3440    -1.0490 c3         1 8W4      -0.230200
     18 C04         -3.1290     7.6780    -1.8950 c3         1 8W4      -0.063600
     19 C05         -5.1840     8.6150    -0.8400 c3         1 8W4      -0.063600
     20 C06         -5.2130     6.3050    -1.7920 c3         1 8W4       0.091300
     21 N07         -4.3380     5.2870    -2.4120 na         1 8W4      -0.072400
     22 C08         -4.4720     4.8980    -3.7300 cc         1 8W4      -0.110100
     23 C09         -3.4310     4.1300    -4.0920 cd         1 8W4      -0.131400
     24 C14         -1.3660     3.3560    -2.6370 ca         1 8W4      -0.048000
     25 N17          1.1130     2.0980    -2.0360 ns         1 8W4      -0.584900
     26 C22         -0.6910     0.0060     1.1970 ca         1 8W4      -0.122500
     27 C25          2.0740     0.0000     1.1970 ca         1 8W4      -0.115500
     28 O27          2.6460     0.6420    -4.0120 oh         1 8W4      -0.581800
     29 N29          5.2740     1.7020    -1.6330 n7         1 8W4      -0.805200
     30 N32          6.7750     1.2370    -3.9060 n          1 8W4      -0.482800
     31 C33          7.5240     1.1570    -5.1620 c3         1 8W4       0.151300
     32 C34          8.1650    -0.2020    -5.2780 ca         1 8W4      -0.116300
     33 C35          9.4320    -0.4150    -4.7700 ca         1 8W4      -0.111500
     34 C36         10.0210    -1.6610    -4.8770 ca         1 8W4      -0.132000
     35 C37          9.3410    -2.6950    -5.4920 ca         1 8W4      -0.122000
     36 C38          8.0730    -2.4840    -6.0000 ca         1 8W4      -0.132000
     37 C39          7.4830    -1.2390    -5.8880 ca         1 8W4      -0.111500
     38 C40          5.4890     0.8660    -3.9050 c          1 8W4       0.666500
     39 O41          4.9890     0.5090    -4.9500 o          1 8W4      -0.639500
     40 O42          0.8260     2.6320     0.1010 o          1 8W4      -0.590100
     41 C43         -1.6180     3.9140    -0.2900 ca         1 8W4      -0.033000
     42 C44         -2.8000     4.5570    -0.5580 ca         1 8W4       0.094600
     43 N45         -3.6180     5.0980     0.4420 nh         1 8W4      -0.689900
     44 C46         -4.2970     4.2090     1.3880 c3         1 8W4       0.235100
     45 O47         -4.8680     6.8560     1.5080 o          1 8W4      -0.620800
     46 H211        -0.5420    -0.0050    -0.9380 ha         1 8W4       0.125000
     47 H231        -0.5410     0.0140     3.3330 ha         1 8W4       0.122000
     48 H311         8.4550     1.2850    -2.6710 h1         1 8W4       0.048200
     49 H312         7.5370     2.7970    -2.7510 h1         1 8W4       0.048200
     50 H302         7.0960     1.8160    -0.5960 h1         1 8W4       0.072200
     51 H301         6.7470     0.2370    -1.3260 h1         1 8W4       0.072200
     52 H281         4.5370    -0.1400    -2.3020 h1         1 8W4       0.112700
     53 H102        -2.1260     3.5120    -5.6580 hc         1 8W4       0.045700
     54 H101        -3.6960     4.1180    -6.2050 hc         1 8W4       0.045700
     55 H113        -4.7900     2.1150    -5.7100 hc         1 8W4       0.037700
     56 H112        -3.5840     1.6520    -4.5020 hc         1 8W4       0.037700
     57 H111        -3.2100     1.5080    -6.2250 hc         1 8W4       0.037700
     58 H192         1.5520    -0.5110    -2.0600 hc         1 8W4       0.059200
     59 H191         3.0830    -0.5100    -1.1750 hc         1 8W4       0.059200
     60 H181         2.8990     1.9790    -0.9540 h1         1 8W4       0.103700
     61 H241         1.9250     0.0020     3.3330 ha         1 8W4       0.122000
     62 H261         3.3710     2.4600    -3.3660 h1         1 8W4       0.038700
     63 H043        -3.4090     7.7110    -2.9420 hc         1 8W4       0.054533
     64 H041        -2.7360     8.6430    -1.5970 hc         1 8W4       0.054533
     65 H042        -2.3710     6.9180    -1.7480 hc         1 8W4       0.054533
     66 H051        -6.1390     8.3580    -0.3970 hc         1 8W4       0.054533
     67 H053        -5.3480     9.1010    -1.7940 hc         1 8W4       0.054533
     68 H052        -4.6500     9.2880    -0.1790 hc         1 8W4       0.054533
     69 H062        -5.8820     5.8220    -1.0900 h1         1 8W4       0.068700
     70 H061        -5.7890     6.8000    -2.5640 h1         1 8W4       0.068700
     71 H081        -5.2960     5.1730    -4.3780 h4         1 8W4       0.170000
     72 H141        -0.7570     2.9760    -3.4480 ha         1 8W4       0.129000
     73 H171         0.7740     2.1390    -2.9770 hn         1 8W4       0.310500
     74 H221        -1.7740     0.0110     1.1980 ha         1 8W4       0.122000
     75 H251         3.1580    -0.0050     1.1970 ha         1 8W4       0.125000
     76 H271         2.4070     1.1860    -4.7440 ho         1 8W4       0.408000
     77 H291         5.2260     2.6650    -1.9000 hn         1 8W4       0.359800
     78 H332         8.2920     1.9210    -5.1740 h1         1 8W4       0.066200
     79 H331         6.8490     1.3100    -5.9960 h1         1 8W4       0.066200
     80 H351         9.9650     0.3960    -4.2880 ha         1 8W4       0.138000
     81 H361        11.0140    -1.8270    -4.4790 ha         1 8W4       0.131000
     82 H371         9.8020    -3.6710    -5.5770 ha         1 8W4       0.129000
     83 H381         7.5390    -3.2950    -6.4800 ha         1 8W4       0.131000
     84 H391         6.4890    -1.0730    -6.2860 ha         1 8W4       0.138000
     85 H431        -1.2370     3.8860     0.7230 ha         1 8W4       0.176000
     86 H463        -4.1590     3.1800     1.0790 h1         1 8W4       0.049367
     87 H462        -5.3540     4.4420     1.4080 h1         1 8W4       0.049367
     88 H461        -3.8780     4.3480     2.3780 h1         1 8W4       0.049367
     89 O01         -2.5140     7.1960     0.8530 o          1 8W4      -0.620800
     90 C10         -3.1900     3.5250    -5.4520 c3         1 8W4      -0.008200
@<TRIPOS>BOND
     1     6    90 1
     2    26     2 ar
     3    26     1 ar
     4     2    14 ar
     5     1    11 ar
     6    90    23 1
     7    14    27 ar
     8    11    27 ar
     9    11    12 1
    10    23    22 2
    11    23     9 1
    12    12    13 1
    13    22    21 1
    14     9    24 ar
    15     9    10 ar
    16    24     8 ar
    17    13    25 1
    18    13    15 1
    19    21    10 1
    20    21    20 1
    21    25     7 1
    22    28    15 1
    23    10    42 ar
    24    15     5 1
    25    20    17 1
    26     8     7 1
    27     8    41 ar
    28     7    40 2
    29    18    17 1
    30    89    16 2
    31    42    41 ar
    32    42    43 1
    33    17    16 1
    34    17    19 1
    35     5    29 1
    36     5    38 1
    37    29     4 1
    38    16    43 1
    39    16    45 2
    40    39    38 2
    41    43    44 1
    42    38    30 1
    43    34    33 ar
    44    34    35 ar
    45    33    32 ar
    46     4     3 1
    47    35    36 ar
    48    30     3 1
    49    30    31 1
    50    32    31 1
    51    32    37 ar
    52    36    37 ar
    53     1    46 1
    54     2    47 1
    55     3    48 1
    56     3    49 1
    57     4    50 1
    58     4    51 1
    59     5    52 1
    60    90    53 1
    61    90    54 1
    62     6    55 1
    63     6    56 1
    64     6    57 1
    65    12    58 1
    66    12    59 1
    67    13    60 1
    68    14    61 1
    69    15    62 1
    70    18    63 1
    71    18    64 1
    72    18    65 1
    73    19    66 1
    74    19    67 1
    75    19    68 1
    76    20    69 1
    77    20    70 1
    78    22    71 1
    79    24    72 1
    80    25    73 1
    81    26    74 1
    82    27    75 1
    83    28    76 1
    84    29    77 1
    85    31    78 1
    86    31    79 1
    87    33    80 1
    88    34    81 1
    89    35    82 1
    90    36    83 1
    91    37    84 1
    92    41    85 1
    93    44    86 1
    94    44    87 1
    95    44    88 1
@<TRIPOS>SUBSTRUCTURE
     1 8W4         1 TEMP              0 ****  ****    0 ROOT
