@<TRIPOS>MOLECULE
8W4
   90    95     1     0     0
SMALL
bcc


@<TRIPOS>ATOM
      1 C21          0.0000     0.0000     0.0000 ca         1 8W4      -0.092000
      2 C23          0.0010     0.0120     2.3950 ca         1 8W4      -0.101000
      3 C31          7.4620     1.7170    -2.7110 c3         1 8W4       0.013000
      4 C30          6.6830     1.3100    -1.4600 c3         1 8W4       0.135800
      5 C28          4.6420     0.8740    -2.6700 c3         1 8W4       0.032500
      6 C11         -3.7320     2.0960    -5.4790 c3         1 8W4       0.002900
      7 C16          0.4050     2.6650    -1.0390 c          1 8W4       0.598700
      8 C15         -0.8830     3.3260    -1.3310 ca         1 8W4      -0.176600
      9 C13         -2.5730     3.9920    -2.9120 ca         1 8W4      -0.106800
     10 C12         -3.2640     4.6540    -1.8850 ca         1 8W4      -0.205200
     11 C20          1.3820     0.0000     0.0000 ca         1 8W4      -0.075300
     12 C19          2.1370     0.0000    -1.3050 c3         1 8W4       0.014900
     13 C18          2.3910     1.4430    -1.7460 c3         1 8W4      -0.000300
     14 C24          1.3830    -0.0010     2.3950 ca         1 8W4      -0.094000
     15 C26          3.2630     1.4450    -3.0040 c3         1 8W4       0.197100
     16 S02         -3.8190     6.7170     0.5590 s6         1 8W4       0.976900
     17 C03         -4.3590     7.3440    -1.0490 c3         1 8W4      -0.069200
     18 C04         -3.1290     7.6780    -1.8950 c3         1 8W4       0.029900
     19 C05         -5.1840     8.6150    -0.8400 c3         1 8W4       0.029900
     20 C06         -5.2130     6.3050    -1.7920 c3         1 8W4       0.005300
     21 N07         -4.3380     5.2870    -2.4120 na         1 8W4       0.386600
     22 C08         -4.4720     4.8980    -3.7300 cc         1 8W4      -0.264100
     23 C09         -3.4310     4.1300    -4.0920 cd         1 8W4      -0.122400
     24 C14         -1.3660     3.3560    -2.6370 ca         1 8W4      -0.022000
     25 N17          1.1130     2.0980    -2.0360 ns         1 8W4      -0.198900
     26 C22         -0.6910     0.0060     1.1970 ca         1 8W4      -0.094000
     27 C25          2.0740     0.0000     1.1970 ca         1 8W4      -0.092000
     28 O27          2.6460     0.6420    -4.0120 oh         1 8W4      -0.560800
     29 N29          5.2740     1.7020    -1.6330 n7         1 8W4      -0.574200
     30 N32          6.7750     1.2370    -3.9060 n          1 8W4      -0.141800
     31 C33          7.5240     1.1570    -5.1620 c3         1 8W4       0.107300
     32 C34          8.1650    -0.2020    -5.2780 ca         1 8W4      -0.128300
     33 C35          9.4320    -0.4150    -4.7700 ca         1 8W4      -0.086000
     34 C36         10.0210    -1.6610    -4.8770 ca         1 8W4      -0.104000
     35 C37          9.3410    -2.6950    -5.4920 ca         1 8W4      -0.095000
     36 C38          8.0730    -2.4840    -6.0000 ca         1 8W4      -0.104000
     37 C39          7.4830    -1.2390    -5.8880 ca         1 8W4      -0.086000
     38 C40          5.4890     0.8660    -3.9050 c          1 8W4       0.595500
     39 O41          4.9890     0.5090    -4.9500 o          1 8W4      -0.677500
     40 O42          0.8260     2.6320     0.1010 o          1 8W4      -0.634100
     41 C43         -1.6180     3.9140    -0.2900 ca         1 8W4      -0.009000
     42 C44         -2.8000     4.5570    -0.5580 ca         1 8W4       0.040600
     43 N45         -3.6180     5.0980     0.4420 nh         1 8W4      -0.381900
     44 C46         -4.2970     4.2090     1.3880 c3         1 8W4       0.274100
     45 O47         -4.8680     6.8560     1.5080 o          1 8W4      -0.576300
     46 H211        -0.5420    -0.0050    -0.9380 ha         1 8W4       0.100000
     47 H231        -0.5410     0.0140     3.3330 ha         1 8W4       0.096000
     48 H311         8.4550     1.2850    -2.6710 h1         1 8W4       0.023700
     49 H312         7.5370     2.7970    -2.7510 h1         1 8W4       0.023700
     50 H302         7.0960     1.8160    -0.5960 h1         1 8W4       0.037200
     51 H301         6.7470     0.2370    -1.3260 h1         1 8W4       0.037200
     52 H281         4.5370    -0.1400    -2.3020 h1         1 8W4       0.082700
     53 H102        -2.1260     3.5120    -5.6580 hc         1 8W4       0.011700
     54 H101        -3.6960     4.1180    -6.2050 hc         1 8W4       0.011700
     55 H113        -4.7900     2.1150    -5.7100 hc         1 8W4       0.004033
     56 H112        -3.5840     1.6520    -4.5020 hc         1 8W4       0.004033
     57 H111        -3.2100     1.5080    -6.2250 hc         1 8W4       0.004033
     58 H192         1.5520    -0.5110    -2.0600 hc         1 8W4       0.031700
     59 H191         3.0830    -0.5100    -1.1750 hc         1 8W4       0.031700
     60 H181         2.8990     1.9790    -0.9540 h1         1 8W4       0.079700
     61 H241         1.9250     0.0020     3.3330 ha         1 8W4       0.096000
     62 H261         3.3710     2.4600    -3.3660 h1         1 8W4       0.001700
     63 H043        -3.4090     7.7110    -2.9420 hc         1 8W4       0.021200
     64 H041        -2.7360     8.6430    -1.5970 hc         1 8W4       0.021200
     65 H042        -2.3710     6.9180    -1.7480 hc         1 8W4       0.021200
     66 H051        -6.1390     8.3580    -0.3970 hc         1 8W4       0.021200
     67 H053        -5.3480     9.1010    -1.7940 hc         1 8W4       0.021200
     68 H052        -4.6500     9.2880    -0.1790 hc         1 8W4       0.021200
     69 H062        -5.8820     5.8220    -1.0900 h1         1 8W4       0.038700
     70 H061        -5.7890     6.8000    -2.5640 h1         1 8W4       0.038700
     71 H081        -5.2960     5.1730    -4.3780 h4         1 8W4       0.145000
     72 H141        -0.7570     2.9760    -3.4480 ha         1 8W4       0.102000
     73 H171         0.7740     2.1390    -2.9770 hn         1 8W4       0.176500
     74 H221        -1.7740     0.0110     1.1980 ha         1 8W4       0.096000
     75 H251         3.1580    -0.0050     1.1970 ha         1 8W4       0.100000
     76 H271         2.4070     1.1860    -4.7440 ho         1 8W4       0.394000
     77 H291         5.2260     2.6650    -1.9000 hn         1 8W4       0.261800
     78 H332         8.2920     1.9210    -5.1740 h1         1 8W4       0.037200
     79 H331         6.8490     1.3100    -5.9960 h1         1 8W4       0.037200
     80 H351         9.9650     0.3960    -4.2880 ha         1 8W4       0.114500
     81 H361        11.0140    -1.8270    -4.4790 ha         1 8W4       0.103500
     82 H371         9.8020    -3.6710    -5.5770 ha         1 8W4       0.102000
     83 H381         7.5390    -3.2950    -6.4800 ha         1 8W4       0.103500
     84 H391         6.4890    -1.0730    -6.2860 ha         1 8W4       0.114500
     85 H431        -1.2370     3.8860     0.7230 ha         1 8W4       0.142000
     86 H463        -4.1590     3.1800     1.0790 h1         1 8W4       0.008700
     87 H462        -5.3540     4.4420     1.4080 h1         1 8W4       0.008700
     88 H461        -3.8780     4.3480     2.3780 h1         1 8W4       0.008700
     89 O01         -2.5140     7.1960     0.8530 o          1 8W4      -0.576300
     90 C10         -3.1900     3.5250    -5.4520 c3         1 8W4       0.066800
@<TRIPOS>BOND
     1     1    11 ar  
     2     1    26 ar  
     3     1    46 1   
     4     2    14 ar  
     5     2    26 ar  
     6     2    47 1   
     7     3     4 1   
     8     3    30 1   
     9     3    48 1   
    10     3    49 1   
    11     4    29 1   
    12     4    50 1   
    13     4    51 1   
    14     5    15 1   
    15     5    29 1   
    16     5    38 1   
    17     5    52 1   
    18     6    55 1   
    19     6    56 1   
    20     6    57 1   
    21     6    90 1   
    22     7     8 1   
    23     7    25 1   
    24     7    40 2   
    25     8    24 ar  
    26     8    41 ar  
    27     9    10 ar  
    28     9    23 1   
    29     9    24 ar  
    30    10    21 1   
    31    10    42 ar  
    32    11    12 1   
    33    11    27 ar  
    34    12    13 1   
    35    12    58 1   
    36    12    59 1   
    37    13    15 1   
    38    13    25 1   
    39    13    60 1   
    40    14    27 ar  
    41    14    61 1   
    42    15    28 1   
    43    15    62 1   
    44    16    17 1   
    45    16    43 1   
    46    16    45 2   
    47    16    89 2   
    48    17    18 1   
    49    17    19 1   
    50    17    20 1   
    51    18    63 1   
    52    18    64 1   
    53    18    65 1   
    54    19    66 1   
    55    19    67 1   
    56    19    68 1   
    57    20    21 1   
    58    20    69 1   
    59    20    70 1   
    60    21    22 1   
    61    22    23 2   
    62    22    71 1   
    63    23    90 1   
    64    24    72 1   
    65    25    73 1   
    66    26    74 1   
    67    27    75 1   
    68    28    76 1   
    69    29    77 1   
    70    30    31 1   
    71    30    38 1   
    72    31    32 1   
    73    31    78 1   
    74    31    79 1   
    75    32    33 ar  
    76    32    37 ar  
    77    33    34 ar  
    78    33    80 1   
    79    34    35 ar  
    80    34    81 1   
    81    35    36 ar  
    82    35    82 1   
    83    36    37 ar  
    84    36    83 1   
    85    37    84 1   
    86    38    39 2   
    87    41    42 ar  
    88    41    85 1   
    89    42    43 1   
    90    43    44 1   
    91    44    86 1   
    92    44    87 1   
    93    44    88 1   
    94    53    90 1   
    95    54    90 1   
@<TRIPOS>SUBSTRUCTURE
     1 8W4         1 TEMP              0 ****  ****    0 ROOT
