@<TRIPOS>MOLECULE
molecule
   65    69     1     0     0
SMALL
bcc


@<TRIPOS>ATOM
      1 C1           0.0000     0.0000     0.0000 c3         1 8W5      -0.091100
      2 C2           1.5300     0.0000     0.0000 c3         1 8W5      -0.083400
      3 C3           2.0400     0.0000     1.4420 c3         1 8W5      -0.074400
      4 C7           5.4150    -1.3570     1.4560 c3         1 8W5       0.124100
      5 C9           5.6160    -2.8060     1.9770 c3         1 8W5      -0.073400
      6 C10          5.1190    -2.7270     3.4250 c3         1 8W5      -0.066700
      7 C12          5.6490    -3.7950     4.3650 c3         1 8W5      -0.062700
      8 C14          5.1780    -5.1750     3.9010 c3         1 8W5      -0.074400
      9 C15          5.7470    -6.2530     4.8280 c3         1 8W5      -0.048200
     10 C16          5.3480    -5.9110     6.2510 c2         1 8W5      -0.046400
     11 C20          4.5490    -5.1720     8.8880 ce         1 8W5      -0.239200
     12 C21          5.1450    -4.2650     8.1300 c2         1 8W5      -0.104200
     13 C22          5.6460    -4.5280     6.7520 c3         1 8W5      -0.002600
     14 C27          5.0640    -1.0100     5.2420 c3         1 8W5      -0.081400
     15 C4           3.5710    -0.0010     1.4420 c3         1 8W5       0.311900
     16 O6           4.0740    -1.2550     0.9360 os         1 8W5      -0.414600
     17 C17          4.7570    -6.8370     6.9940 ce         1 8W5      -0.250200
     18 C18          4.3390    -6.5350     8.3710 c          1 8W5       0.564500
     19 O19          3.8310    -7.3930     9.0680 o          1 8W5      -0.529100
     20 C23          5.1030    -3.4880     5.7680 c3         1 8W5      -0.039700
     21 C25          5.4740    -2.0910     6.2550 c3         1 8W5       0.148100
     22 C28          5.7130    -1.3700     3.8860 c3         1 8W5      -0.046000
     23 C29          5.4220    -0.4290     2.7070 c3         1 8W5       0.021800
     24 O30          4.0740     0.0730     2.7920 os         1 8W5      -0.409600
     25 O34          7.1320     2.9290     2.1420 oh         1 8W5      -0.585800
     26 O36          6.8870    -2.0260     6.4590 oh         1 8W5      -0.601800
     27 C37          7.1660    -4.3530     6.7630 c3         1 8W5      -0.070100
     28 H1          -0.3610     0.8720     0.5320 hc         1 8W5       0.036033
     29 H2          -0.3610    -0.8970     0.4890 hc         1 8W5       0.036033
     30 H3          -0.3610     0.0250    -1.0210 hc         1 8W5       0.036033
     31 H4           1.8910     0.8840    -0.5110 hc         1 8W5       0.047700
     32 H5           1.8910    -0.8840    -0.5110 hc         1 8W5       0.047700
     33 H6           1.6790    -0.8840     1.9530 hc         1 8W5       0.062700
     34 H7           1.6800     0.8850     1.9530 hc         1 8W5       0.062700
     35 H8           6.1630    -1.0710     0.7270 h1         1 8W5       0.071700
     36 H9           5.0150    -3.5030     1.4050 hc         1 8W5       0.064700
     37 H10          6.6630    -3.0800     1.9480 hc         1 8W5       0.064700
     38 H11          4.0360    -2.6960     3.4540 hc         1 8W5       0.071700
     39 H12          6.7320    -3.7640     4.3800 hc         1 8W5       0.082700
     40 H13          4.0960    -5.2130     3.9270 hc         1 8W5       0.049200
     41 H14          5.5250    -5.3510     2.8900 hc         1 8W5       0.049200
     42 H15          6.8270    -6.2710     4.7460 hc         1 8W5       0.057200
     43 H16          5.3380    -7.2190     4.5570 hc         1 8W5       0.057200
     44 H17          4.2500    -4.9230     9.8980 ha         1 8W5       0.150000
     45 H18          5.2840    -3.2720     8.5400 ha         1 8W5       0.124000
     46 H19          5.4210    -0.0420     5.5740 hc         1 8W5       0.057200
     47 H20          3.9850    -0.9940     5.1390 hc         1 8W5       0.057200
     48 H21          5.5990     1.9910     1.1340 h1         1 8W5       0.047700
     49 H22          5.2480     2.4290     2.8110 h1         1 8W5       0.047700
     50 H26          3.9550     0.8230     0.8520 h2         1 8W5       0.040700
     51 H27          4.6110    -7.8330     6.5940 ha         1 8W5       0.151000
     52 H28          4.0230    -3.5680     5.7430 hc         1 8W5       0.064700
     53 H29          4.9680    -1.9010     7.1940 h1         1 8W5       0.034700
     54 H30          6.8550     3.7960     1.8960 ho         1 8W5       0.405000
     55 H31          7.0760    -1.4220     7.1570 ho         1 8W5       0.395000
     56 H32          7.6360    -5.2940     7.0220 hc         1 8W5       0.047700
     57 H33          7.5010    -4.0400     5.7820 hc         1 8W5       0.047700
     58 H34          7.4370    -3.6010     7.4950 hc         1 8W5       0.047700
     59 C31          6.4300     0.6870     2.6180 c          1 8W5       0.558100
     60 C35          7.2250    -1.5030     4.0760 c3         1 8W5      -0.083100
     61 O32          7.5790     0.4880     2.9340 o          1 8W5      -0.471100
     62 C33          6.0060     2.0500     2.1360 c3         1 8W5       0.042400
     63 H23          7.6030    -0.6280     4.5920 hc         1 8W5       0.054367
     64 H24          7.4390    -2.3880     4.6630 hc         1 8W5       0.054367
     65 H25          7.7050    -1.5870     3.1090 hc         1 8W5       0.054367
@<TRIPOS>BOND
     1    19    18 2
     2    18    11 1
     3    18    17 1
     4    11    12 2
     5    17    10 2
     6    12    13 1
     7    10     9 1
     8    10    13 1
     9    27    13 1
    10     9     8 1
    11    13    20 1
    12    20     7 1
    13    20    21 1
    14     8     7 1
    15    26    21 1
    16     7     6 1
    17    21    14 1
    18     6    22 1
    19     6     5 1
    20    14    22 1
    21    22    60 1
    22    22    23 1
    23     5     4 1
    24     1     2 1
    25     3     2 1
    26     3    15 1
    27    23    24 1
    28    23     4 1
    29    23    59 1
    30    24    15 1
    31     4    16 1
    32    16    15 1
    33    59    62 1
    34    59    61 2
    35    62    25 1
    36     1    28 1
    37     1    29 1
    38     1    30 1
    39     2    31 1
    40     2    32 1
    41     3    33 1
    42     3    34 1
    43     4    35 1
    44     5    36 1
    45     5    37 1
    46     6    38 1
    47     7    39 1
    48     8    40 1
    49     8    41 1
    50     9    42 1
    51     9    43 1
    52    11    44 1
    53    12    45 1
    54    14    46 1
    55    14    47 1
    56    62    48 1
    57    62    49 1
    58    60    63 1
    59    60    64 1
    60    60    65 1
    61    15    50 1
    62    17    51 1
    63    20    52 1
    64    21    53 1
    65    25    54 1
    66    26    55 1
    67    27    56 1
    68    27    57 1
    69    27    58 1
@<TRIPOS>SUBSTRUCTURE
     1 8W5         1 TEMP              0 ****  ****    0 ROOT
