@<TRIPOS>MOLECULE
molecule
   67    69     1     0     0
SMALL
bcc


@<TRIPOS>ATOM
      1 C1           0.0000     0.0000     0.0000 c          1 8W6       0.700500
      2 O2          -0.6010     0.9960    -0.3420 o          1 8W6      -0.561500
      3 C9           4.7140     0.0490    -3.0240 ca         1 8W6      -0.005600
      4 C8           5.8580    -0.4440    -2.4200 ca         1 8W6      -0.089000
      5 C7           5.7620    -1.1970    -1.2670 ca         1 8W6      -0.211000
      6 C6           4.5170    -1.4600    -0.7130 ca         1 8W6       0.142100
      7 O23          4.4200    -2.2060     0.4200 os         1 8W6      -0.328900
      8 C24          5.6270    -2.7770     0.9260 c3         1 8W6       0.125700
      9 C10          3.4720    -0.2080    -2.4700 ca         1 8W6      -0.083000
     10 C5           3.3720    -0.9650    -1.3190 ca         1 8W6      -0.101300
     11 C4           2.0180    -1.2500    -0.7200 c3         1 8W6      -0.044100
     12 C3           1.5070     0.0000     0.0000 c3         1 8W6      -0.169700
     13 C11          2.0110     0.0000     1.4470 c3         1 8W6       0.256800
     14 N12          1.9980    -1.3740     1.9600 nu         1 8W6      -0.952200
     15 C13          0.8160    -2.0830     2.0040 c2         1 8W6       0.573200
     16 N14          0.3680    -2.5380     3.1270 n2         1 8W6      -0.465200
     17 O62          1.0930    -2.3090     4.3230 os         1 8W6      -0.204300
     18 C63          0.4820    -2.8680     5.4870 c3         1 8W6       0.145400
     19 C64          1.3460    -2.5620     6.7120 c3         1 8W6      -0.094100
     20 C15          0.0510    -2.3210     0.7240 c3         1 8W6       0.036700
     21 N16         -0.6830    -1.0940     0.3810 n          1 8W6      -0.496400
     22 C17         -2.0290    -1.0690     0.4400 c          1 8W6       0.772100
     23 O18         -2.6260    -0.0280     0.2490 o          1 8W6      -0.599100
     24 N19         -2.7140    -2.1980     0.7100 ns         1 8W6      -0.583900
     25 C20         -4.1780    -2.1880     0.7000 c3         1 8W6       0.185000
     26 C30         -4.6940    -1.7230     2.0630 c3         1 8W6      -0.093400
     27 C35         -4.2810    -0.2680     2.2970 c3         1 8W6      -0.094100
     28 C21         -4.6890    -3.5770     0.4180 ca         1 8W6      -0.135300
     29 C29         -5.7810    -3.7530    -0.4150 ca         1 8W6      -0.154000
     30 C28         -6.2530    -5.0220    -0.6780 ca         1 8W6      -0.098500
     31 C25         -4.0600    -4.6710     0.9850 ca         1 8W6      -0.154000
     32 C26         -4.5220    -5.9460     0.7300 ca         1 8W6      -0.098500
     33 C27         -5.6270    -6.1300    -0.1030 ca         1 8W6      -0.096600
     34 C31         -6.1290    -7.4920    -0.3810 c          1 8W6       0.881200
     35 O33         -5.5780    -8.4540     0.1170 o          1 8W6      -0.835300
     36 O32         -7.1950    -7.6670    -1.1840 o          1 8W6      -0.835300
     37 H1           6.8300    -0.2380    -2.8530 ha         1 8W6       0.142000
     38 H2           6.6580    -1.5830    -0.7950 ha         1 8W6       0.139000
     39 H3           6.0980    -3.3700     0.1520 h1         1 8W6       0.043033
     40 H4           6.3000    -1.9850     1.2330 h1         1 8W6       0.043033
     41 H5           5.4000    -3.4080     1.7760 h1         1 8W6       0.043033
     42 H6           2.5780     0.1790    -2.9440 ha         1 8W6       0.158000
     43 H7           1.3250    -1.5220    -1.5070 hc         1 8W6       0.076700
     44 H8           2.1010    -2.0660    -0.0130 hc         1 8W6       0.076700
     45 H9           1.8670     0.8880    -0.5060 hc         1 8W6       0.093700
     46 H10          1.3610     0.6180     2.0550 h1         1 8W6       0.054700
     47 H11          3.0220     0.3880     1.4780 h1         1 8W6       0.054700
     48 H12          2.8480    -1.7970     2.2790 hn         1 8W6       0.452800
     49 H13          0.3910    -3.9410     5.3680 h1         1 8W6       0.038200
     50 H14         -0.5020    -2.4350     5.6220 h1         1 8W6       0.038200
     51 H15          1.4370    -1.4890     6.8320 hc         1 8W6       0.041700
     52 H16          2.3300    -2.9950     6.5780 hc         1 8W6       0.041700
     53 H17          0.8830    -2.9860     7.5960 hc         1 8W6       0.041700
     54 H18          0.7430    -2.5650    -0.0730 h1         1 8W6       0.091700
     55 H19         -0.6500    -3.1350     0.8660 h1         1 8W6       0.091700
     56 H20         -2.2210    -3.0490     0.8960 hn         1 8W6       0.319500
     57 H21         -4.5300    -1.5110    -0.0690 h1         1 8W6       0.076700
     58 H22         -5.7750    -1.7990     2.0860 hc         1 8W6       0.046700
     59 H23         -4.2720    -2.3470     2.8410 hc         1 8W6       0.046700
     60 H24         -4.4360     0.3010     1.3890 hc         1 8W6       0.035700
     61 H25         -4.8790     0.1540     3.0950 hc         1 8W6       0.035700
     62 H26         -3.2340    -0.2300     2.5720 hc         1 8W6       0.035700
     63 H27         -6.2660    -2.8920    -0.8590 ha         1 8W6       0.106000
     64 H28         -7.1090    -5.1590    -1.3270 ha         1 8W6       0.151500
     65 H29         -3.2030    -4.5260     1.6320 ha         1 8W6       0.106000
     66 H30         -4.0300    -6.8010     1.1770 ha         1 8W6       0.151500
     67 Cl2          4.8380     0.9950    -4.4730 cl         1 8W6      -0.111400
@<TRIPOS>BOND
     1    18    19 1   
     2    18    17 1   
     3    23    22 2   
     4    16    17 1   
     5    16    15 2   
     6    27    26 1   
     7    20    15 1   
     8    20    21 1   
     9    22    24 1   
    10    22    21 1   
    11    15    14 1   
    12    25    26 1   
    13    25    24 1   
    14    25    28 1   
    15    31    28 ar  
    16    31    32 ar  
    17    21     1 1   
    18    28    29 ar  
    19    32    33 ar  
    20    14    13 1   
    21    29    30 ar  
    22     1    12 1   
    23     1     2 2   
    24    33    30 ar  
    25    33    34 1   
    26    35    34 1   
    27    13    12 1   
    28    12    11 1   
    29    34    36 1   
    30     8     7 1   
    31     7     6 1   
    32    11    10 1   
    33     6    10 ar  
    34     6     5 ar  
    35    10     9 ar  
    36     5     4 ar  
    37     9     3 ar  
    38     4     3 ar  
    39     3    67 1   
    40     4    37 1   
    41     5    38 1   
    42     8    39 1   
    43     8    40 1   
    44     8    41 1   
    45     9    42 1   
    46    11    43 1   
    47    11    44 1   
    48    12    45 1   
    49    13    46 1   
    50    13    47 1   
    51    14    48 1   
    52    18    49 1   
    53    18    50 1   
    54    19    51 1   
    55    19    52 1   
    56    19    53 1   
    57    20    54 1   
    58    20    55 1   
    59    24    56 1   
    60    25    57 1   
    61    26    58 1   
    62    26    59 1   
    63    27    60 1   
    64    27    61 1   
    65    27    62 1   
    66    29    63 1   
    67    30    64 1   
    68    31    65 1   
    69    32    66 1   
@<TRIPOS>SUBSTRUCTURE
     1 8W6         1 TEMP              0 ****  ****    0 ROOT
