@<TRIPOS>MOLECULE
8W6
   67    69     1     0     0
SMALL
bcc


@<TRIPOS>ATOM
      1 C1           0.0000     0.0000     0.0000 c          1 8W6       0.614500
      2 O2          -0.6010     0.9960    -0.3420 o          1 8W6      -0.592500
      3 C9           4.7140     0.0490    -3.0240 ca         1 8W6      -0.069600
      4 C8           5.8580    -0.4440    -2.4200 ca         1 8W6      -0.061000
      5 C7           5.7620    -1.1970    -1.2670 ca         1 8W6      -0.198000
      6 C6           4.5170    -1.4600    -0.7130 ca         1 8W6       0.152100
      7 O23          4.4200    -2.2060     0.4200 os         1 8W6      -0.310900
      8 C24          5.6270    -2.7770     0.9260 c3         1 8W6       0.241700
      9 C10          3.4720    -0.2080    -2.4700 ca         1 8W6      -0.055000
     10 C5           3.3720    -0.9650    -1.3190 ca         1 8W6      -0.110300
     11 C4           2.0180    -1.2500    -0.7200 c3         1 8W6      -0.011100
     12 C3           1.5070     0.0000     0.0000 c3         1 8W6      -0.150700
     13 C11          2.0110     0.0000     1.4470 c3         1 8W6       0.200800
     14 N12          1.9980    -1.3740     1.9600 nu         1 8W6      -0.577200
     15 C13          0.8160    -2.0830     2.0040 c2         1 8W6       0.424200
     16 N14          0.3680    -2.5380     3.1270 n2         1 8W6      -0.416200
     17 O62          1.0930    -2.3090     4.3230 os         1 8W6      -0.196300
     18 C63          0.4820    -2.8680     5.4870 c3         1 8W6       0.223400
     19 C64          1.3460    -2.5620     6.7120 c3         1 8W6      -0.000100
     20 C15          0.0510    -2.3210     0.7240 c3         1 8W6      -0.057300
     21 N16         -0.6830    -1.0940     0.3810 n          1 8W6      -0.129400
     22 C17         -2.0290    -1.0690     0.4400 c          1 8W6       0.573100
     23 O18         -2.6260    -0.0280     0.2490 o          1 8W6      -0.640100
     24 N19         -2.7140    -2.1980     0.7100 ns         1 8W6      -0.213900
     25 C20         -4.1780    -2.1880     0.7000 c3         1 8W6       0.100000
     26 C30         -4.6940    -1.7230     2.0630 c3         1 8W6      -0.040400
     27 C35         -4.2810    -0.2680     2.2970 c3         1 8W6      -0.020100
     28 C21         -4.6890    -3.5770     0.4180 ca         1 8W6      -0.149300
     29 C29         -5.7810    -3.7530    -0.4150 ca         1 8W6      -0.134500
     30 C28         -6.2530    -5.0220    -0.6780 ca         1 8W6      -0.070000
     31 C25         -4.0600    -4.6710     0.9850 ca         1 8W6      -0.134500
     32 C26         -4.5220    -5.9460     0.7300 ca         1 8W6      -0.070000
     33 C27         -5.6270    -6.1300    -0.1030 ca         1 8W6      -0.096600
     34 C31         -6.1290    -7.4920    -0.3810 c          1 8W6       0.972200
     35 O33         -5.5780    -8.4540     0.1170 o          1 8W6      -0.882800
     36 O32         -7.1950    -7.6670    -1.1840 o          1 8W6      -0.882800
     37 H1           6.8300    -0.2380    -2.8530 ha         1 8W6       0.110000
     38 H2           6.6580    -1.5830    -0.7950 ha         1 8W6       0.122000
     39 H3           5.4000    -3.4070     1.7770 h1         1 8W6      -0.000967
     40 H4           6.0980    -3.3710     0.1520 h1         1 8W6      -0.000967
     41 H5           6.3000    -1.9850     1.2330 h1         1 8W6      -0.000967
     42 H6           2.5780     0.1790    -2.9440 ha         1 8W6       0.127000
     43 H7           2.1010    -2.0660    -0.0130 hc         1 8W6       0.053700
     44 H8           1.3250    -1.5220    -1.5070 hc         1 8W6       0.053700
     45 H9           1.8670     0.8880    -0.5060 hc         1 8W6       0.066700
     46 H10          3.0220     0.3880     1.4780 h1         1 8W6       0.023200
     47 H11          1.3610     0.6180     2.0550 h1         1 8W6       0.023200
     48 H12          2.8480    -1.7970     2.2790 hn         1 8W6       0.312800
     49 H13         -0.5020    -2.4350     5.6220 h1         1 8W6       0.002700
     50 H14          0.3910    -3.9410     5.3680 h1         1 8W6       0.002700
     51 H15          2.3300    -2.9950     6.5780 hc         1 8W6       0.006700
     52 H16          0.8830    -2.9860     7.5960 hc         1 8W6       0.006700
     53 H17          1.4370    -1.4890     6.8320 hc         1 8W6       0.006700
     54 H18          0.7430    -2.5650    -0.0730 h1         1 8W6       0.068700
     55 H19         -0.6500    -3.1350     0.8660 h1         1 8W6       0.068700
     56 H20         -2.2210    -3.0490     0.8960 hn         1 8W6       0.193500
     57 H21         -4.5300    -1.5110    -0.0690 h1         1 8W6       0.053700
     58 H22         -4.2720    -2.3470     2.8410 hc         1 8W6       0.018700
     59 H23         -5.7750    -1.7990     2.0860 hc         1 8W6       0.018700
     60 H24         -4.8790     0.1530     3.0950 hc         1 8W6       0.010033
     61 H25         -4.4370     0.3020     1.3890 hc         1 8W6       0.010033
     62 H26         -3.2330    -0.2300     2.5710 hc         1 8W6       0.010033
     63 H27         -6.2660    -2.8920    -0.8590 ha         1 8W6       0.088500
     64 H28         -7.1090    -5.1590    -1.3270 ha         1 8W6       0.126000
     65 H29         -3.2030    -4.5260     1.6320 ha         1 8W6       0.088500
     66 H30         -4.0300    -6.8010     1.1770 ha         1 8W6       0.126000
     67 Cl2          4.8380     0.9950    -4.4730 cl         1 8W6      -0.029400
@<TRIPOS>BOND
     1     1     2 2   
     2     1    12 1   
     3     1    21 1   
     4     3     4 ar  
     5     3     9 ar  
     6     3    67 1   
     7     4     5 ar  
     8     4    37 1   
     9     5     6 ar  
    10     5    38 1   
    11     6     7 1   
    12     6    10 ar  
    13     7     8 1   
    14     8    39 1   
    15     8    40 1   
    16     8    41 1   
    17     9    10 ar  
    18     9    42 1   
    19    10    11 1   
    20    11    12 1   
    21    11    43 1   
    22    11    44 1   
    23    12    13 1   
    24    12    45 1   
    25    13    14 1   
    26    13    46 1   
    27    13    47 1   
    28    14    15 1   
    29    14    48 1   
    30    15    16 2   
    31    15    20 1   
    32    16    17 1   
    33    17    18 1   
    34    18    19 1   
    35    18    49 1   
    36    18    50 1   
    37    19    51 1   
    38    19    52 1   
    39    19    53 1   
    40    20    21 1   
    41    20    54 1   
    42    20    55 1   
    43    21    22 1   
    44    22    23 2   
    45    22    24 1   
    46    24    25 1   
    47    24    56 1   
    48    25    26 1   
    49    25    28 1   
    50    25    57 1   
    51    26    27 1   
    52    26    58 1   
    53    26    59 1   
    54    27    60 1   
    55    27    61 1   
    56    27    62 1   
    57    28    29 ar  
    58    28    31 ar  
    59    29    30 ar  
    60    29    63 1   
    61    30    33 ar  
    62    30    64 1   
    63    31    32 ar  
    64    31    65 1   
    65    32    33 ar  
    66    32    66 1   
    67    33    34 1   
    68    34    35 1   
    69    34    36 1   
@<TRIPOS>SUBSTRUCTURE
     1 8W6         1 TEMP              0 ****  ****    0 ROOT
