@<TRIPOS>MOLECULE
molecule
   60    64     1     0     0
SMALL
bcc


@<TRIPOS>ATOM
      1 C1           0.0000     0.0000     0.0000 ca         1 8W7      -0.098000
      2 C2           1.3820     0.0000     0.0000 ca         1 8W7      -0.195000
      3 C3           2.0800     0.0000     1.2010 ca         1 8W7       0.159100
      4 C4          -0.6980     0.0050     1.1910 ca         1 8W7      -0.092000
      5 C5          -0.0060     0.0050     2.4040 ca         1 8W7      -0.121600
      6 C6           1.3900    -0.0010     2.3970 ca         1 8W7      -0.123300
      7 N1           0.5940    -0.0020     4.6400 n          1 8W7      -0.492800
      8 N2           2.7980     0.5020     6.9640 ns         1 8W7      -0.573500
      9 N3          10.4860    -0.0040    -0.6260 n3         1 8W7      -0.724600
     10 C7           1.8240    -0.0010     3.8410 c3         1 8W7       0.141300
     11 C8          -0.4620     0.0100     3.8070 c          1 8W7       0.723100
     12 C9           0.5260    -0.0120     6.1030 c3         1 8W7       0.076700
     13 C10          0.8020    -1.4290     6.6180 c3         1 8W7      -0.110400
     14 C11          2.2360    -1.8130     6.2610 c3         1 8W7      -0.168400
     15 C12          3.1810    -0.7740     6.8060 c          1 8W7       0.694500
     16 C13          1.5620     0.9270     6.6620 c          1 8W7       0.683500
     17 C14          4.0870     0.0010    -0.0740 c3         1 8W7       0.187700
     18 C15          5.5810     0.0000     0.1210 ca         1 8W7      -0.099300
     19 O2           1.2740     2.0910     6.8420 o          1 8W7      -0.584500
     20 C22         10.2380     1.2520    -1.3490 c3         1 8W7       0.120800
     21 C23         10.9020     1.1810    -2.7260 c3         1 8W7       0.139900
     22 O5          12.2990     0.9180    -2.5630 os         1 8W7      -0.424600
     23 C24         12.5770    -0.2980    -1.8630 c3         1 8W7       0.139900
     24 C25         11.9290    -0.2430    -0.4770 c3         1 8W7       0.120800
     25 C20          8.3220    -0.0010     0.4790 ca         1 8W7      -0.066300
     26 C19          7.6370    -1.1980     0.3900 ca         1 8W7      -0.120500
     27 C17          6.2660    -1.1970     0.2100 ca         1 8W7      -0.103500
     28 C18          7.6380     1.1970     0.3850 ca         1 8W7      -0.120500
     29 C16          6.2670     1.1960     0.2060 ca         1 8W7      -0.103500
     30 O4           3.4390     0.0000     1.2000 os         1 8W7      -0.325900
     31 O3           4.3090    -1.0980     7.1070 o          1 8W7      -0.601500
     32 H1          -0.5390    -0.0000    -0.9400 ha         1 8W7       0.140000
     33 H2           1.9230    -0.0040    -0.9390 ha         1 8W7       0.143000
     34 H3          -1.7810     0.0050     1.1850 ha         1 8W7       0.151000
     35 H4           3.4600     1.1620     7.3210 hn         1 8W7       0.347500
     36 H6           2.4050    -0.8900     4.0530 h1         1 8W7       0.069200
     37 H7           2.4040     0.8900     4.0540 h1         1 8W7       0.069200
     38 H8          -0.4580     0.3040     6.4270 h1         1 8W7       0.123700
     39 H9           0.6770    -1.4540     7.6940 hc         1 8W7       0.071700
     40 H10          0.1140    -2.1240     6.1510 hc         1 8W7       0.071700
     41 H11          2.3380    -1.8640     5.1840 hc         1 8W7       0.089200
     42 H12          2.4700    -2.7770     6.6980 hc         1 8W7       0.089200
     43 H13          3.7950    -0.8840    -0.6280 h1         1 8W7       0.042700
     44 H14          3.7950     0.8850    -0.6270 h1         1 8W7       0.042700
     45 H15         10.6560     2.0790    -0.7890 h1         1 8W7       0.044200
     46 H16          9.1700     1.3930    -1.4700 h1         1 8W7       0.044200
     47 H17         10.4500     0.3850    -3.3050 h1         1 8W7       0.053950
     48 H18         10.7710     2.1270    -3.2390 h1         1 8W7       0.053950
     49 H19         12.1700    -1.1340    -2.4180 h1         1 8W7       0.053950
     50 H20         13.6480    -0.4150    -1.7560 h1         1 8W7       0.053950
     51 H21         12.3700     0.5640     0.0960 h1         1 8W7       0.044200
     52 H22         12.0880    -1.1850     0.0330 h1         1 8W7       0.044200
     53 H23         10.1060    -0.8840     1.2380 h1         1 8W7       0.043700
     54 H24         10.1060     0.8850     1.2330 h1         1 8W7       0.043700
     55 H25          8.1740    -2.1360     0.4600 ha         1 8W7       0.136500
     56 H26          5.7290    -2.1350     0.1400 ha         1 8W7       0.134000
     57 H27          8.1750     2.1350     0.4520 ha         1 8W7       0.136500
     58 H28          5.7310     2.1340     0.1320 ha         1 8W7       0.134000
     59 O1          -1.6250     0.0130     4.1600 o          1 8W7      -0.616500
     60 C21          9.8160    -0.0010     0.6810 c3         1 8W7       0.206100
@<TRIPOS>BOND
     1    14    13 1
     2    14    15 1
     3    13    12 1
     4    31    15 2
     5    15     8 1
     6    12     7 1
     7    12    16 1
     8    10     7 1
     9    10     6 1
    10     7    11 1
    11    30     3 1
    12    30    17 1
    13     6     3 ar
    14     6     5 ar
    15    11    59 2
    16    11     5 1
    17     3     2 ar
    18     5     4 ar
    19     2     1 ar
    20    17    18 1
    21     8    16 1
    22     4     1 ar
    23    16    19 2
    24    18    27 ar
    25    18    29 ar
    26    27    26 ar
    27    29    28 ar
    28    26    25 ar
    29    28    25 ar
    30    25    60 1
    31    60     9 1
    32     9    24 1
    33     9    20 1
    34    24    23 1
    35    23    22 1
    36    20    21 1
    37    21    22 1
    38     1    32 1
    39     2    33 1
    40     4    34 1
    41     8    35 1
    42    10    36 1
    43    10    37 1
    44    12    38 1
    45    13    39 1
    46    13    40 1
    47    14    41 1
    48    14    42 1
    49    17    43 1
    50    17    44 1
    51    20    45 1
    52    20    46 1
    53    21    47 1
    54    21    48 1
    55    23    49 1
    56    23    50 1
    57    24    51 1
    58    24    52 1
    59    60    53 1
    60    60    54 1
    61    26    55 1
    62    27    56 1
    63    28    57 1
    64    29    58 1
@<TRIPOS>SUBSTRUCTURE
     1 8W7         1 TEMP              0 ****  ****    0 ROOT
