@<TRIPOS>MOLECULE
8W7
   60    64     1     0     0
SMALL
bcc


@<TRIPOS>ATOM
      1 C1           0.0000     0.0000     0.0000 ca         1 8W7      -0.068000
      2 C2           1.3820     0.0000     0.0000 ca         1 8W7      -0.185000
      3 C3           2.0800     0.0000     1.2010 ca         1 8W7       0.174100
      4 C4          -0.6980     0.0050     1.1910 ca         1 8W7      -0.056000
      5 C5          -0.0060     0.0050     2.4040 ca         1 8W7      -0.132600
      6 C6           1.3900    -0.0010     2.3970 ca         1 8W7      -0.138300
      7 N1           0.5940    -0.0020     4.6400 n          1 8W7      -0.159800
      8 N2           2.7980     0.5020     6.9640 ns         1 8W7      -0.151500
      9 N3          10.4860    -0.0040    -0.6260 n3         1 8W7      -0.534600
     10 C7           1.8240    -0.0010     3.8410 c3         1 8W7       0.099300
     11 C8          -0.4620     0.0100     3.8070 c          1 8W7       0.661100
     12 C9           0.5260    -0.0120     6.1030 c3         1 8W7      -0.007300
     13 C10          0.8020    -1.4290     6.6180 c3         1 8W7      -0.050400
     14 C11          2.2360    -1.8130     6.2610 c3         1 8W7      -0.123400
     15 C12          3.1810    -0.7740     6.8060 c          1 8W7       0.605500
     16 C13          1.5620     0.9270     6.6620 c          1 8W7       0.589500
     17 C14          4.0870     0.0010    -0.0740 c3         1 8W7       0.264700
     18 C15          5.5810     0.0000     0.1210 ca         1 8W7      -0.118300
     19 O2           1.2740     2.0910     6.8420 o          1 8W7      -0.616500
     20 C22         10.2380     1.2520    -1.3490 c3         1 8W7       0.104300
     21 C23         10.9020     1.1810    -2.7260 c3         1 8W7       0.215400
     22 O5          12.2990     0.9180    -2.5630 os         1 8W7      -0.412600
     23 C24         12.5770    -0.2980    -1.8630 c3         1 8W7       0.215400
     24 C25         11.9290    -0.2430    -0.4770 c3         1 8W7       0.104300
     25 C20          8.3220    -0.0010     0.4790 ca         1 8W7      -0.078300
     26 C19          7.6370    -1.1980     0.3900 ca         1 8W7      -0.094000
     27 C17          6.2660    -1.1970     0.2100 ca         1 8W7      -0.075000
     28 C18          7.6380     1.1970     0.3850 ca         1 8W7      -0.094000
     29 C16          6.2670     1.1960     0.2060 ca         1 8W7      -0.075000
     30 O4           3.4390     0.0000     1.2000 os         1 8W7      -0.303900
     31 O3           4.3090    -1.0980     7.1070 o          1 8W7      -0.632500
     32 H1          -0.5390    -0.0000    -0.9400 ha         1 8W7       0.108000
     33 H2           1.9230    -0.0040    -0.9390 ha         1 8W7       0.124000
     34 H3          -1.7810     0.0050     1.1850 ha         1 8W7       0.120000
     35 H4           3.4600     1.1620     7.3210 hn         1 8W7       0.199500
     36 H6           2.4050    -0.8900     4.0530 h1         1 8W7       0.037700
     37 H7           2.4040     0.8900     4.0540 h1         1 8W7       0.037700
     38 H8          -0.4580     0.3040     6.4270 h1         1 8W7       0.090700
     39 H9           0.6770    -1.4540     7.6940 hc         1 8W7       0.039700
     40 H10          0.1140    -2.1240     6.1510 hc         1 8W7       0.039700
     41 H11          2.3380    -1.8640     5.1840 hc         1 8W7       0.059200
     42 H12          2.4700    -2.7770     6.6980 hc         1 8W7       0.059200
     43 H13          3.7950    -0.8840    -0.6280 h1         1 8W7       0.005700
     44 H14          3.7950     0.8850    -0.6270 h1         1 8W7       0.005700
     45 H15         10.6560     2.0790    -0.7890 h1         1 8W7       0.019700
     46 H16          9.1700     1.3930    -1.4700 h1         1 8W7       0.019700
     47 H17         10.4500     0.3850    -3.3050 h1         1 8W7       0.012700
     48 H18         10.7710     2.1270    -3.2390 h1         1 8W7       0.012700
     49 H19         12.1700    -1.1340    -2.4180 h1         1 8W7       0.012700
     50 H20         13.6480    -0.4150    -1.7560 h1         1 8W7       0.012700
     51 H21         12.3700     0.5640     0.0960 h1         1 8W7       0.019700
     52 H22         12.0880    -1.1850     0.0330 h1         1 8W7       0.019700
     53 H23         10.1060    -0.8840     1.2380 h1         1 8W7       0.015200
     54 H24         10.1060     0.8850     1.2330 h1         1 8W7       0.015200
     55 H25          8.1740    -2.1360     0.4600 ha         1 8W7       0.110500
     56 H26          5.7290    -2.1350     0.1400 ha         1 8W7       0.107000
     57 H27          8.1750     2.1350     0.4520 ha         1 8W7       0.110500
     58 H28          5.7310     2.1340     0.1320 ha         1 8W7       0.107000
     59 O1          -1.6250     0.0130     4.1600 o          1 8W7      -0.657500
     60 C21          9.8160    -0.0010     0.6810 c3         1 8W7       0.210100
@<TRIPOS>BOND
     1     1     2 ar  
     2     1     4 ar  
     3     1    32 1   
     4     2     3 ar  
     5     2    33 1   
     6     3     6 ar  
     7     3    30 1   
     8     4     5 ar  
     9     4    34 1   
    10     5     6 ar  
    11     5    11 1   
    12     6    10 1   
    13     7    10 1   
    14     7    11 1   
    15     7    12 1   
    16     8    15 1   
    17     8    16 1   
    18     8    35 1   
    19     9    20 1   
    20     9    24 1   
    21     9    60 1   
    22    10    36 1   
    23    10    37 1   
    24    11    59 2   
    25    12    13 1   
    26    12    16 1   
    27    12    38 1   
    28    13    14 1   
    29    13    39 1   
    30    13    40 1   
    31    14    15 1   
    32    14    41 1   
    33    14    42 1   
    34    15    31 2   
    35    16    19 2   
    36    17    18 1   
    37    17    30 1   
    38    17    43 1   
    39    17    44 1   
    40    18    27 ar  
    41    18    29 ar  
    42    20    21 1   
    43    20    45 1   
    44    20    46 1   
    45    21    22 1   
    46    21    47 1   
    47    21    48 1   
    48    22    23 1   
    49    23    24 1   
    50    23    49 1   
    51    23    50 1   
    52    24    51 1   
    53    24    52 1   
    54    25    26 ar  
    55    25    28 ar  
    56    25    60 1   
    57    26    27 ar  
    58    26    55 1   
    59    27    56 1   
    60    28    29 ar  
    61    28    57 1   
    62    29    58 1   
    63    53    60 1   
    64    54    60 1   
@<TRIPOS>SUBSTRUCTURE
     1 8W7         1 TEMP              0 ****  ****    0 ROOT
