@<TRIPOS>MOLECULE
molecule
   56    59     1     0     0
SMALL
bcc


@<TRIPOS>ATOM
      1 C1           0.0000     0.0000     0.0000 ca         1 8W8      -0.083000
      2 C2           1.3830     0.0000     0.0000 ca         1 8W8      -0.119000
      3 C3           6.6730    -3.2260    -0.4970 ca         1 8W8      -0.117000
      4 C7           5.5840    -2.4270    -0.6940 ca         1 8W8      -0.106000
      5 C8           9.2920    -6.6590    -1.0100 ca         1 8W8      -0.150000
      6 C9          11.3020    -5.8570     0.0260 ca         1 8W8      -0.150000
      7 C10          5.8100    -1.4920     1.5100 ca         1 8W8      -0.168000
      8 C11          1.3900    -0.0010     2.3940 ca         1 8W8      -0.161000
      9 C12          7.8520    -2.4810     2.8430 cc         1 8W8       0.376800
     10 C13          6.9310    -2.3020     1.7260 ca         1 8W8      -0.212900
     11 C14          2.0770     0.0000     1.1960 ca         1 8W8      -0.058300
     12 C15          7.3610    -3.1820     0.7130 ca         1 8W8      -0.044200
     13 C16          9.2000    -4.8150     0.5190 ca         1 8W8       0.031800
     14 C19         10.6630    -6.7370    -0.8320 ca         1 8W8       0.122900
     15 C20          2.3870     2.7950     2.1510 c          1 8W8       0.615100
     16 C21          5.6240     1.4350     1.0610 c3         1 8W8      -0.114100
     17 C22         -2.1020     0.0150     3.5010 c3         1 8W8       0.129700
     18 C24          4.0940     1.4360     1.0660 c3         1 8W8       0.099700
     19 N26          8.7180    -3.3950     2.5060 nd         1 8W8      -0.486100
     20 C4           8.5600    -5.7010    -0.3370 ca         1 8W8      -0.117500
     21 C5          10.5740    -4.9010     0.7050 ca         1 8W8      -0.117500
     22 C6          -0.6910     0.0060     1.1960 ca         1 8W8      -0.206000
     23 C17          5.1470    -1.5580     0.3020 ca         1 8W8       0.107100
     24 C18          0.0030     0.0110     2.3970 ca         1 8W8       0.143100
     25 C23          3.5850    -0.0010     1.1920 c3         1 8W8       0.174400
     26 C25          1.8880     3.6090     3.3160 c3         1 8W8       0.551900
     27 N27          8.4590    -3.8450     1.2070 na         1 8W8       0.140800
     28 N28          3.6090     2.2280     2.1980 ns         1 8W8      -0.562900
     29 O29          1.6890     2.6480     1.1700 o          1 8W8      -0.531100
     30 O30         -0.6760     0.0160     3.5750 os         1 8W8      -0.330900
     31 O31          4.0570    -0.7740     0.0870 os         1 8W8      -0.315900
     32 F32         11.3790    -7.6710    -1.4950 f          1 8W8      -0.137900
     33 F33          1.8430     2.8060     4.4610 f          1 8W8      -0.211300
     34 F34          2.7520     4.6880     3.5360 f          1 8W8      -0.211300
     35 F35          0.6040     4.0900     3.0330 f          1 8W8      -0.211300
     36 H1          -0.5420    -0.0020    -0.9380 ha         1 8W8       0.132000
     37 H2           1.9240    -0.0020    -0.9390 ha         1 8W8       0.141000
     38 H3           7.0010    -3.8970    -1.2810 ha         1 8W8       0.144000
     39 H4           5.0550    -2.4690    -1.6390 ha         1 8W8       0.151000
     40 H6          12.3740    -5.9220     0.1680 ha         1 8W8       0.151500
     41 H7           5.4680    -0.8160     2.2840 ha         1 8W8       0.143000
     42 H8           1.9340     0.0010     3.3310 ha         1 8W8       0.138000
     43 H9           7.8130    -1.9590     3.7920 h4         1 8W8       0.065800
     44 H10          5.9830     0.8340     0.2350 hc         1 8W8       0.052700
     45 H11          5.9880     1.0210     1.9940 hc         1 8W8       0.052700
     46 H12          5.9850     2.4510     0.9520 hc         1 8W8       0.052700
     47 H13         -2.4360     0.8900     2.9570 h1         1 8W8       0.041700
     48 H14         -2.4370    -0.8780     2.9880 h1         1 8W8       0.041700
     49 H15         -2.5160     0.0330     4.5020 h1         1 8W8       0.041700
     50 H16          3.7310     1.8680     0.1410 h1         1 8W8       0.097700
     51 H17          7.4880    -5.6380    -0.4800 ha         1 8W8       0.153500
     52 H18         11.0740    -4.2120     1.3740 ha         1 8W8       0.153500
     53 H19         -1.7740     0.0110     1.1960 ha         1 8W8       0.135000
     54 H20          3.9480    -0.4330     2.1160 h1         1 8W8       0.063700
     55 H21          4.1950     2.3690     2.9970 hn         1 8W8       0.326500
     56 H5           8.7940    -7.3490    -1.6800 ha         1 8W8       0.151500
@<TRIPOS>BOND
     1    34    26 1
     2    33    26 1
     3    26    35 1
     4    26    15 1
     5    29    15 2
     6    15    28 1
     7    17    30 1
     8    30    24 1
     9    28    18 1
    10    24    22 ar
    11    24     8 ar
    12    22     1 ar
    13     8    11 ar
    14     1     2 ar
    15    18    16 1
    16    18    25 1
    17    11     2 ar
    18    11    25 1
    19    25    31 1
    20    31    23 1
    21    23     7 ar
    22    23     4 ar
    23     7    10 ar
    24     4     3 ar
    25    10     9 1
    26    10    12 ar
    27     3    12 ar
    28     9    19 2
    29    12    27 1
    30    19    27 1
    31    27    13 1
    32    13    21 ar
    33    13    20 ar
    34    21     6 ar
    35    20     5 ar
    36     6    14 ar
    37     5    14 ar
    38    14    32 1
    39     1    36 1
    40     2    37 1
    41     3    38 1
    42     4    39 1
    43     5    56 1
    44     6    40 1
    45     7    41 1
    46     8    42 1
    47     9    43 1
    48    16    44 1
    49    16    45 1
    50    16    46 1
    51    17    47 1
    52    17    48 1
    53    17    49 1
    54    18    50 1
    55    20    51 1
    56    21    52 1
    57    22    53 1
    58    25    54 1
    59    28    55 1
@<TRIPOS>SUBSTRUCTURE
     1 8W8         1 TEMP              0 ****  ****    0 ROOT
