@<TRIPOS>MOLECULE
8W8
   56    59     1     0     0
SMALL
bcc


@<TRIPOS>ATOM
      1 C1           0.0000     0.0000     0.0000 ca         1 8W8      -0.045000
      2 C2           1.3830     0.0000     0.0000 ca         1 8W8      -0.096000
      3 C3           6.6730    -3.2260    -0.4970 ca         1 8W8      -0.080000
      4 C7           5.5840    -2.4270    -0.6940 ca         1 8W8      -0.088000
      5 C8           9.2920    -6.6590    -1.0100 ca         1 8W8      -0.115000
      6 C9          11.3020    -5.8570     0.0260 ca         1 8W8      -0.115000
      7 C10          5.8100    -1.4920     1.5100 ca         1 8W8      -0.157000
      8 C11          1.3900    -0.0010     2.3940 ca         1 8W8      -0.152000
      9 C12          7.8520    -2.4810     2.8430 cc         1 8W8       0.431800
     10 C13          6.9310    -2.3020     1.7260 ca         1 8W8      -0.217900
     11 C14          2.0770     0.0000     1.1960 ca         1 8W8      -0.072300
     12 C15          7.3610    -3.1820     0.7130 ca         1 8W8      -0.213200
     13 C16          9.2000    -4.8150     0.5190 ca         1 8W8      -0.136200
     14 C19         10.6630    -6.7370    -0.8320 ca         1 8W8       0.101900
     15 C20          2.3870     2.7950     2.1510 c          1 8W8       0.510100
     16 C21          5.6240     1.4350     1.0610 c3         1 8W8      -0.029100
     17 C22         -2.1020     0.0150     3.5010 c3         1 8W8       0.243700
     18 C24          4.0940     1.4360     1.0660 c3         1 8W8      -0.007300
     19 N26          8.7180    -3.3950     2.5060 nd         1 8W8      -0.623100
     20 C4           8.5600    -5.7010    -0.3370 ca         1 8W8      -0.084500
     21 C5          10.5740    -4.9010     0.7050 ca         1 8W8      -0.084500
     22 C6          -0.6910     0.0060     1.1960 ca         1 8W8      -0.195000
     23 C17          5.1470    -1.5580     0.3020 ca         1 8W8       0.117100
     24 C18          0.0030     0.0110     2.3970 ca         1 8W8       0.156100
     25 C23          3.5850    -0.0010     1.1920 c3         1 8W8       0.203400
     26 C25          1.8880     3.6090     3.3160 c3         1 8W8       0.508900
     27 N27          8.4590    -3.8450     1.2070 na         1 8W8       0.591800
     28 N28          3.6090     2.2280     2.1980 ns         1 8W8      -0.151900
     29 O29          1.6890     2.6480     1.1700 o          1 8W8      -0.569100
     30 O30         -0.6760     0.0160     3.5750 os         1 8W8      -0.308900
     31 O31          4.0570    -0.7740     0.0870 os         1 8W8      -0.284900
     32 F32         11.3790    -7.6710    -1.4950 f          1 8W8      -0.125900
     33 F33          1.8430     2.8060     4.4610 f          1 8W8      -0.196967
     34 F34          2.7520     4.6880     3.5360 f          1 8W8      -0.196967
     35 F35          0.6040     4.0900     3.0330 f          1 8W8      -0.196967
     36 H1          -0.5420    -0.0020    -0.9380 ha         1 8W8       0.101000
     37 H2           1.9240    -0.0020    -0.9390 ha         1 8W8       0.115000
     38 H3           7.0010    -3.8970    -1.2810 ha         1 8W8       0.116000
     39 H4           5.0550    -2.4690    -1.6390 ha         1 8W8       0.118000
     40 H6          12.3740    -5.9220     0.1680 ha         1 8W8       0.122500
     41 H7           5.4680    -0.8160     2.2840 ha         1 8W8       0.131000
     42 H8           1.9340     0.0010     3.3310 ha         1 8W8       0.114000
     43 H9           7.8130    -1.9590     3.7920 h4         1 8W8       0.015800
     44 H10          5.9830     0.8340     0.2350 hc         1 8W8       0.022367
     45 H11          5.9880     1.0210     1.9940 hc         1 8W8       0.022367
     46 H12          5.9850     2.4510     0.9520 hc         1 8W8       0.022367
     47 H13         -2.4360     0.8900     2.9570 h1         1 8W8      -0.001967
     48 H14         -2.4370    -0.8780     2.9880 h1         1 8W8      -0.001967
     49 H15         -2.5160     0.0330     4.5020 h1         1 8W8      -0.001967
     50 H16          3.7310     1.8680     0.1410 h1         1 8W8       0.072700
     51 H17          7.4880    -5.6380    -0.4800 ha         1 8W8       0.126500
     52 H18         11.0740    -4.2120     1.3740 ha         1 8W8       0.126500
     53 H19         -1.7740     0.0110     1.1960 ha         1 8W8       0.120000
     54 H20          3.9480    -0.4330     2.1160 h1         1 8W8       0.037700
     55 H21          4.1950     2.3690     2.9970 hn         1 8W8       0.181500
     56 H5           8.7940    -7.3490    -1.6800 ha         1 8W8       0.122500
@<TRIPOS>BOND
     1     1     2 ar  
     2     1    22 ar  
     3     1    36 1   
     4     2    11 ar  
     5     2    37 1   
     6     3     4 ar  
     7     3    12 ar  
     8     3    38 1   
     9     4    23 ar  
    10     4    39 1   
    11     5    14 ar  
    12     5    20 ar  
    13     5    56 1   
    14     6    14 ar  
    15     6    21 ar  
    16     6    40 1   
    17     7    10 ar  
    18     7    23 ar  
    19     7    41 1   
    20     8    11 ar  
    21     8    24 ar  
    22     8    42 1   
    23     9    10 1   
    24     9    19 2   
    25     9    43 1   
    26    10    12 ar  
    27    11    25 1   
    28    12    27 1   
    29    13    20 ar  
    30    13    21 ar  
    31    13    27 1   
    32    14    32 1   
    33    15    26 1   
    34    15    28 1   
    35    15    29 2   
    36    16    18 1   
    37    16    44 1   
    38    16    45 1   
    39    16    46 1   
    40    17    30 1   
    41    17    47 1   
    42    17    48 1   
    43    17    49 1   
    44    18    25 1   
    45    18    28 1   
    46    18    50 1   
    47    19    27 1   
    48    20    51 1   
    49    21    52 1   
    50    22    24 ar  
    51    22    53 1   
    52    23    31 1   
    53    24    30 1   
    54    25    31 1   
    55    25    54 1   
    56    26    33 1   
    57    26    34 1   
    58    26    35 1   
    59    28    55 1   
@<TRIPOS>SUBSTRUCTURE
     1 8W8         1 TEMP              0 ****  ****    0 ROOT
