@<TRIPOS>MOLECULE
8W9
   28    29     1     0     0
SMALL
bcc


@<TRIPOS>ATOM
      1 C4           0.0000     0.0000     0.0000 ca         1 8W9      -0.137400
      2 C5           1.3960     0.0000     0.0000 ca         1 8W9      -0.094400
      3 C6           2.0860     0.0000     1.2030 ca         1 8W9      -0.073000
      4 C11          0.0060     0.0040     2.3940 ca         1 8W9      -0.209300
      5 C8          -0.6900     0.0060     1.2020 ca         1 8W9      -0.061000
      6 C12          1.3900     0.0000     2.3950 ca         1 8W9      -0.093000
      7 N2          -0.4020     0.0000    -1.3330 n          1 8W9       0.051000
      8 N3           1.7990     0.0010    -1.3340 n          1 8W9       0.061000
      9 C1           0.6980     0.0010    -2.1100 c          1 8W9       0.582500
     10 O7           0.6990     0.0010    -3.3260 o          1 8W9      -0.662500
     11 C15         -0.7450     0.0100     3.7010 c3         1 8W9       0.044100
     12 N14         -0.9950    -1.3740     4.1280 nz         1 8W9       0.071400
     13 H1           3.1650     0.0110     1.3020 ha         1 8W9       0.129000
     14 H2          -1.7680     0.1160     1.1930 ha         1 8W9       0.114000
     15 H3          -2.2910     0.8930    -1.4580 h1         1 8W9       0.026700
     16 H4          -1.7950    -0.0130    -2.8950 h1         1 8W9       0.026700
     17 H5          -2.2990    -0.8760    -1.4350 h1         1 8W9       0.026700
     18 H6           3.6950    -0.8780    -1.4350 h1         1 8W9       0.030367
     19 H7           3.6890     0.8900    -1.4550 h1         1 8W9       0.030367
     20 H8           3.1940    -0.0120    -2.8940 h1         1 8W9       0.030367
     21 H9           2.0230     0.0760     3.2710 ha         1 8W9       0.118000
     22 H10         -1.6890     0.5250     3.5730 hx         1 8W9       0.079700
     23 H11         -0.1550     0.5190     4.4540 hx         1 8W9       0.079700
     24 H12         -1.5700    -1.8330     3.4500 hn         1 8W9       0.222133
     25 H13         -0.1240    -1.8590     4.2120 hn         1 8W9       0.222133
     26 C9          -1.7870     0.0010    -1.8120 c3         1 8W9       0.083300
     27 C10          3.1840     0.0000    -1.8100 c3         1 8W9       0.079300
     28 H143        -1.4620    -1.3700     5.0130 hn         1 8W9       0.222133
@<TRIPOS>BOND
     1     1     2 ar  
     2     1     5 ar  
     3     1     7 1   
     4     2     3 ar  
     5     2     8 1   
     6     3     6 ar  
     7     3    13 1   
     8     4     5 ar  
     9     4     6 ar  
    10     4    11 1   
    11     5    14 1   
    12     6    21 1   
    13     7     9 1   
    14     7    26 1   
    15     8     9 1   
    16     8    27 1   
    17     9    10 2   
    18    11    12 1   
    19    11    22 1   
    20    11    23 1   
    21    12    24 1   
    22    12    25 1   
    23    12    28 1   
    24    15    26 1   
    25    16    26 1   
    26    17    26 1   
    27    18    27 1   
    28    19    27 1   
    29    20    27 1   
@<TRIPOS>SUBSTRUCTURE
     1 8W9         1 TEMP              0 ****  ****    0 ROOT
