@<TRIPOS>MOLECULE
molecule
   28    29     1     0     0
SMALL
bcc


@<TRIPOS>ATOM
      1 C4           0.0000     0.0000     0.0000 ca         1 8W9       0.009600
      2 C5           1.3960     0.0000     0.0000 ca         1 8W9       0.053600
      3 C6           2.0860     0.0000     1.2030 ca         1 8W9      -0.121000
      4 C11          0.0060     0.0040     2.3940 ca         1 8W9      -0.196300
      5 C8          -0.6900     0.0060     1.2020 ca         1 8W9      -0.107000
      6 C12          1.3900     0.0000     2.3950 ca         1 8W9      -0.116000
      7 N2          -0.4020     0.0000    -1.3330 n          1 8W9      -0.356000
      8 N3           1.7990     0.0010    -1.3340 n          1 8W9      -0.349000
      9 C1           0.6980     0.0010    -2.1100 c          1 8W9       0.801500
     10 O7           0.6990     0.0010    -3.3260 o          1 8W9      -0.610500
     11 C15         -0.7450     0.0100     3.7010 c3         1 8W9       0.166100
     12 N14         -0.9950    -1.3740     4.1280 nz         1 8W9      -0.810600
     13 H1           3.1650     0.0110     1.3020 ha         1 8W9       0.161000
     14 H2          -1.7680     0.1160     1.1930 ha         1 8W9       0.141000
     15 H3          -2.2910     0.8930    -1.4580 h1         1 8W9       0.062367
     16 H4          -1.7950    -0.0130    -2.8950 h1         1 8W9       0.062367
     17 H5          -2.2990    -0.8760    -1.4350 h1         1 8W9       0.062367
     18 H6           3.6950    -0.8780    -1.4350 h1         1 8W9       0.066033
     19 H7           3.6890     0.8900    -1.4550 h1         1 8W9       0.066033
     20 H8           3.1940    -0.0120    -2.8940 h1         1 8W9       0.066033
     21 H9           2.0230     0.0760     3.2710 ha         1 8W9       0.146000
     22 H10         -1.6890     0.5250     3.5730 hx         1 8W9       0.110700
     23 H11         -0.1550     0.5190     4.4540 hx         1 8W9       0.110700
     24 H12         -1.5700    -1.8330     3.4500 hn         1 8W9       0.453467
     25 H13         -0.1240    -1.8590     4.2120 hn         1 8W9       0.453467
     26 C9          -1.7870     0.0010    -1.8120 c3         1 8W9       0.111300
     27 C10          3.1840     0.0000    -1.8100 c3         1 8W9       0.108300
     28 H143        -1.4620    -1.3700     5.0130 hn         1 8W9       0.453467
@<TRIPOS>BOND
     1     6     3 ar  
     2     6     4 ar  
     3     3     2 ar  
     4    11     4 1   
     5    11    12 1   
     6    27     8 1   
     7     4     5 ar  
     8     2     8 1   
     9     2     1 ar  
    10     8     9 1   
    11     5     1 ar  
    12     1     7 1   
    13     9     7 1   
    14     9    10 2   
    15     7    26 1   
    16     3    13 1   
    17     5    14 1   
    18    26    15 1   
    19    26    16 1   
    20    26    17 1   
    21    27    18 1   
    22    27    19 1   
    23    27    20 1   
    24     6    21 1   
    25    11    22 1   
    26    11    23 1   
    27    12    24 1   
    28    12    25 1   
    29    28    12 1   
@<TRIPOS>SUBSTRUCTURE
     1 8W9         1 TEMP              0 ****  ****    0 ROOT
