@<TRIPOS>MOLECULE
8WA
   46    49     1     0     0
SMALL
bcc


@<TRIPOS>ATOM
      1 Cl2          0.0000     0.0000     0.0000 cl         1 8WA      -0.099000
      2 C16          1.7360     0.0000     0.0000 ca         1 8WA       0.400300
      3 C15          2.4140     0.0000     1.2080 ca         1 8WA      -0.225300
      4 C14          3.8000     0.0010     1.2110 ca         1 8WA      -0.036000
      5 N4           2.3810    -0.0050    -1.1480 nb         1 8WA      -0.514000
      6 C17          3.7120    -0.0050    -1.2000 ca         1 8WA       0.547300
      7 C13          4.4600     0.0010    -0.0090 ca         1 8WA      -0.403500
      8 N3           5.7920     0.0000    -0.3860 na         1 8WA       0.228700
      9 N5           4.6010    -0.0090    -2.2240 nc         1 8WA      -0.671700
     10 C12          5.8240    -0.0060    -1.7500 cd         1 8WA       0.362700
     11 N            6.9680    -0.0100    -2.5160 nh         1 8WA      -0.426600
     12 C            8.2830    -0.0060    -1.8680 c3         1 8WA       0.202100
     13 C1           6.8720    -0.0160    -3.9780 c3         1 8WA       0.181800
     14 C2           6.8390     1.4240    -4.4930 c3         1 8WA       0.111800
     15 N1           6.7430     1.4180    -5.9590 n7         1 8WA      -0.579200
     16 C3           6.8310     2.7810    -6.4980 c3         1 8WA       0.182800
     17 C11          7.3590     2.7280    -7.9100 ca         1 8WA      -0.117300
     18 C6           6.7980     3.4770    -8.9300 ca         1 8WA       0.037600
     19 N2           5.7040     4.3220    -8.7390 nu         1 8WA      -0.386600
     20 C5           5.5080     4.7000    -7.3380 c3         1 8WA       0.140800
     21 C4           5.4420     3.4230    -6.4920 c3         1 8WA      -0.065400
     22 C10          8.4390     1.9020    -8.1740 ca         1 8WA      -0.046000
     23 C9           8.9650     1.8200    -9.4490 ca         1 8WA      -0.064600
     24 Cl1         10.3180     0.7770    -9.7660 cl         1 8WA      -0.027400
     25 C8           8.4110     2.5680   -10.4720 ca         1 8WA      -0.066000
     26 C7           7.3350     3.3930   -10.2170 ca         1 8WA      -0.084600
     27 Cl           6.6440     4.3310   -11.5030 cl         1 8WA      -0.013400
     28 H1           1.8700     0.1380     2.1350 ha         1 8WA       0.124000
     29 H2           4.3540     0.0010     2.1420 ha         1 8WA       0.105000
     30 H3           6.5840     0.0040     0.2260 hn         1 8WA       0.132700
     31 H5           8.3960     0.9000    -1.2860 h1         1 8WA       0.007700
     32 H6           9.0580    -0.0500    -2.6240 h1         1 8WA       0.007700
     33 H7           8.3660    -0.8670    -1.2150 h1         1 8WA       0.007700
     34 H8           5.9660    -0.5280    -4.2780 h1         1 8WA       0.041200
     35 H9           7.7310    -0.5280    -4.3940 h1         1 8WA       0.041200
     36 H10          7.7450     1.9360    -4.1930 h1         1 8WA       0.015700
     37 H11          5.9800     1.9370    -4.0770 h1         1 8WA       0.015700
     38 H12          5.8730     1.0060    -6.2340 hn         1 8WA       0.271800
     39 H14          7.5020     3.3730    -5.8870 h1         1 8WA       0.038700
     40 H15          5.8190     5.1470    -9.2940 hn         1 8WA       0.266800
     41 H16          6.3380     5.3120    -7.0080 h1         1 8WA       0.015200
     42 H17          4.5800     5.2500    -7.2380 h1         1 8WA       0.015200
     43 H18          5.1780     3.6850    -5.4740 hc         1 8WA       0.036700
     44 H19          4.7330     2.7370    -6.9400 hc         1 8WA       0.036700
     45 H20          8.8760     1.3180    -7.3730 ha         1 8WA       0.128000
     46 H21          8.8220     2.5060   -11.4730 ha         1 8WA       0.123000
@<TRIPOS>BOND
     1     1     2 1   
     2     2     3 ar  
     3     2     5 ar  
     4     3     4 ar  
     5     3    28 1   
     6     4     7 ar  
     7     4    29 1   
     8     5     6 ar  
     9     6     7 ar  
    10     6     9 1   
    11     7     8 1   
    12     8    10 1   
    13     8    30 1   
    14     9    10 2   
    15    10    11 1   
    16    11    12 1   
    17    11    13 1   
    18    12    31 1   
    19    12    32 1   
    20    12    33 1   
    21    13    14 1   
    22    13    34 1   
    23    13    35 1   
    24    14    15 1   
    25    14    36 1   
    26    14    37 1   
    27    15    16 1   
    28    15    38 1   
    29    16    17 1   
    30    16    21 1   
    31    16    39 1   
    32    17    18 ar  
    33    17    22 ar  
    34    18    19 1   
    35    18    26 ar  
    36    19    20 1   
    37    19    40 1   
    38    20    21 1   
    39    20    41 1   
    40    20    42 1   
    41    21    43 1   
    42    21    44 1   
    43    22    23 ar  
    44    22    45 1   
    45    23    24 1   
    46    23    25 ar  
    47    25    26 ar  
    48    25    46 1   
    49    26    27 1   
@<TRIPOS>SUBSTRUCTURE
     1 8WA         1 TEMP              0 ****  ****    0 ROOT
