@<TRIPOS>MOLECULE
molecule
   46    49     1     0     0
SMALL
bcc


@<TRIPOS>ATOM
      1 Cl2          0.0000     0.0000     0.0000 cl         1 8WA      -0.158000
      2 C16          1.7360     0.0000     0.0000 ca         1 8WA       0.530300
      3 C15          2.4140     0.0000     1.2080 ca         1 8WA      -0.250300
      4 C14          3.8000     0.0010     1.2110 ca         1 8WA      -0.075000
      5 N4           2.3810    -0.0050    -1.1480 nb         1 8WA      -0.660000
      6 C17          3.7120    -0.0050    -1.2000 ca         1 8WA       0.638300
      7 C13          4.4600     0.0010    -0.0090 ca         1 8WA      -0.229500
      8 N3           5.7920     0.0000    -0.3860 na         1 8WA      -0.292300
      9 N5           4.6010    -0.0090    -2.2240 nc         1 8WA      -0.740700
     10 C12          5.8240    -0.0060    -1.7500 cd         1 8WA       0.695700
     11 N            6.9680    -0.0100    -2.5160 nh         1 8WA      -0.784600
     12 C            8.2830    -0.0060    -1.8680 c3         1 8WA       0.223100
     13 C1           6.8720    -0.0160    -3.9780 c3         1 8WA       0.252800
     14 C2           6.8390     1.4240    -4.4930 c3         1 8WA       0.127800
     15 N1           6.7430     1.4180    -5.9590 n7         1 8WA      -0.816200
     16 C3           6.8310     2.7810    -6.4980 c3         1 8WA       0.219800
     17 C11          7.3590     2.7280    -7.9100 ca         1 8WA      -0.115300
     18 C6           6.7980     3.4770    -8.9300 ca         1 8WA       0.131600
     19 N2           5.7040     4.3220    -8.7390 nu         1 8WA      -0.677600
     20 C5           5.5080     4.7000    -7.3380 c3         1 8WA       0.162800
     21 C4           5.4420     3.4230    -6.4920 c3         1 8WA      -0.119400
     22 C10          8.4390     1.9020    -8.1740 ca         1 8WA      -0.062000
     23 C9           8.9650     1.8200    -9.4490 ca         1 8WA      -0.006600
     24 Cl1         10.3180     0.7770    -9.7660 cl         1 8WA      -0.107400
     25 C8           8.4110     2.5680   -10.4720 ca         1 8WA      -0.084000
     26 C7           7.3350     3.3930   -10.2170 ca         1 8WA      -0.021600
     27 Cl           6.6440     4.3310   -11.5030 cl         1 8WA      -0.098400
     28 H1           1.8700     0.1380     2.1350 ha         1 8WA       0.152000
     29 H2           4.3540     0.0010     2.1420 ha         1 8WA       0.137000
     30 H3           6.5840     0.0040     0.2260 hn         1 8WA       0.303700
     31 H5           8.3960     0.9000    -1.2860 h1         1 8WA       0.042033
     32 H6           9.0580    -0.0500    -2.6240 h1         1 8WA       0.042033
     33 H7           8.3660    -0.8670    -1.2150 h1         1 8WA       0.042033
     34 H8           5.9660    -0.5280    -4.2780 h1         1 8WA       0.072700
     35 H9           7.7310    -0.5280    -4.3940 h1         1 8WA       0.072700
     36 H10          7.7450     1.9360    -4.1930 h1         1 8WA       0.042200
     37 H11          5.9800     1.9370    -4.0770 h1         1 8WA       0.042200
     38 H12          5.8730     1.0060    -6.2340 hn         1 8WA       0.370800
     39 H14          7.5020     3.3730    -5.8870 h1         1 8WA       0.066700
     40 H15          5.8190     5.1470    -9.2940 hn         1 8WA       0.389800
     41 H16          6.3380     5.3120    -7.0080 h1         1 8WA       0.045700
     42 H17          4.5800     5.2500    -7.2380 h1         1 8WA       0.045700
     43 H18          5.1780     3.6850    -5.4740 hc         1 8WA       0.066200
     44 H19          4.7330     2.7370    -6.9400 hc         1 8WA       0.066200
     45 H20          8.8760     1.3180    -7.3730 ha         1 8WA       0.160000
     46 H21          8.8220     2.5060   -11.4730 ha         1 8WA       0.156000
@<TRIPOS>BOND
     1    21    20 1   
     2    21    16 1   
     3    24    23 1   
     4    27    26 1   
     5    25    23 ar  
     6    25    26 ar  
     7    23    22 ar  
     8    26    18 ar  
     9    22    17 ar  
    10    18    19 1   
    11    18    17 ar  
    12    19    20 1   
    13    17    16 1   
    14    16    15 1   
    15    15    14 1   
    16    14    13 1   
    17    13    11 1   
    18    12    11 1   
    19    11    10 1   
    20    10     8 1   
    21    10     9 2   
    22     8     7 1   
    23     9     6 1   
    24     7     6 ar  
    25     7     4 ar  
    26     6     5 ar  
    27     4     3 ar  
    28     5     2 ar  
    29     3     2 ar  
    30     2     1 1   
    31     3    28 1   
    32     4    29 1   
    33     8    30 1   
    34    12    31 1   
    35    12    32 1   
    36    12    33 1   
    37    13    34 1   
    38    13    35 1   
    39    14    36 1   
    40    14    37 1   
    41    15    38 1   
    42    16    39 1   
    43    19    40 1   
    44    20    41 1   
    45    20    42 1   
    46    21    43 1   
    47    21    44 1   
    48    22    45 1   
    49    25    46 1   
@<TRIPOS>SUBSTRUCTURE
     1 8WA         1 TEMP              0 ****  ****    0 ROOT
