@<TRIPOS>MOLECULE
molecule
   40    41     1     0     0
SMALL
bcc


@<TRIPOS>ATOM
      1 CAV          0.0000     0.0000     0.0000 c3         1 8WB       0.140700
      2 OAU          1.4290     0.0000     0.0000 os         1 8WB      -0.343900
      3 CAD          2.0460     0.0000     1.2110 ca         1 8WB       0.142100
      4 CAC          2.2530    -1.1950     1.8870 ca         1 8WB       0.057100
      5 OAS          1.8370    -2.3690     1.3380 os         1 8WB      -0.334900
      6 CAT          2.7920    -3.0960     0.5620 c3         1 8WB       0.139700
      7 CAB          2.8850    -1.1910     3.1250 ca         1 8WB       0.135100
      8 OAQ          3.0850    -2.3610     3.7870 os         1 8WB      -0.312900
      9 CAR          3.7410    -2.2870     5.0540 c3         1 8WB       0.125700
     10 CAA          3.3110     0.0050     3.6880 ca         1 8WB      -0.223000
     11 CAF          3.1100     1.1950     3.0240 ca         1 8WB      -0.074000
     12 CAE          2.4810     1.2030     1.7780 ca         1 8WB      -0.118800
     13 CAG          2.2710     2.4790     1.0610 cc         1 8WB      -0.049200
     14 CAH          3.4030     3.0290     0.4660 cd         1 8WB      -0.039000
     15 CAI          3.5170     4.2030    -0.2650 cd         1 8WB      -0.234000
     16 CAJ          2.5290     5.1190    -0.5830 cc         1 8WB       0.088900
     17 OAO          2.9280     6.1870    -1.3180 os         1 8WB      -0.286900
     18 CAP          4.3090     6.2460    -1.6780 c3         1 8WB       0.118700
     19 CAK          1.1560     5.0850    -0.2420 c          1 8WB       0.557500
     20 OAN          0.4820     6.0230    -0.6470 o          1 8WB      -0.550100
     21 CAL          0.4650     4.1100     0.5050 cd         1 8WB      -0.233200
     22 CAM          0.9540     2.9700     1.0690 cc         1 8WB      -0.038000
     23 H1          -0.3610     0.1550     1.0090 h1         1 8WB       0.039367
     24 H2          -0.3610    -0.9520    -0.3700 h1         1 8WB       0.039367
     25 H3          -0.3610     0.7960    -0.6390 h1         1 8WB       0.039367
     26 H4           3.6910    -2.5020     0.4470 h1         1 8WB       0.036700
     27 H5           2.3750    -3.3130    -0.4130 h1         1 8WB       0.036700
     28 H6           3.0350    -4.0240     1.0650 h1         1 8WB       0.036700
     29 H7           3.8340    -3.2820     5.4720 h1         1 8WB       0.043367
     30 H8           4.7270    -1.8560     4.9260 h1         1 8WB       0.043367
     31 H9           3.1600    -1.6660     5.7260 h1         1 8WB       0.043367
     32 H10          3.8010     0.0020     4.6540 ha         1 8WB       0.142000
     33 H11          3.4460     2.1250     3.4670 ha         1 8WB       0.141000
     34 H12          4.3190     2.4640     0.5890 ha         1 8WB       0.133000
     35 H13          4.5090     4.4330    -0.6360 ha         1 8WB       0.138000
     36 H14          4.4920     7.1420    -2.2580 h1         1 8WB       0.046700
     37 H15          4.5670     5.3750    -2.2670 h1         1 8WB       0.046700
     38 H16          4.9150     6.2670    -0.7800 h1         1 8WB       0.046700
     39 H17         -0.5930     4.2910     0.6490 ha         1 8WB       0.154000
     40 H18          0.2300     2.3600     1.5950 ha         1 8WB       0.128000
@<TRIPOS>BOND
     1     9     8 1   
     2     8     7 1   
     3     6     5 1   
     4     5     4 1   
     5     7     4 ar  
     6     7    10 ar  
     7     4     3 ar  
     8    10    11 ar  
     9     3     2 1   
    10     3    12 ar  
    11    11    12 ar  
    12     2     1 1   
    13    12    13 1   
    14    13    14 2   
    15    13    22 1   
    16    14    15 1   
    17    22    21 2   
    18    15    16 2   
    19    21    19 1   
    20    16    19 1   
    21    16    17 1   
    22    19    20 2   
    23    18    17 1   
    24     1    23 1   
    25     1    24 1   
    26     1    25 1   
    27     6    26 1   
    28     6    27 1   
    29     6    28 1   
    30     9    29 1   
    31     9    30 1   
    32     9    31 1   
    33    10    32 1   
    34    11    33 1   
    35    14    34 1   
    36    15    35 1   
    37    18    36 1   
    38    18    37 1   
    39    18    38 1   
    40    21    39 1   
    41    22    40 1   
@<TRIPOS>SUBSTRUCTURE
     1 8WB         1 TEMP              0 ****  ****    0 ROOT
