@<TRIPOS>MOLECULE
molecule
   54    57     1     0     0
SMALL
bcc


@<TRIPOS>ATOM
      1 C4           0.0000     0.0000     0.0000 ca         1 8WC      -0.138000
      2 C5           1.3800     0.0000     0.0000 ca         1 8WC      -0.103000
      3 C6           2.0740     0.0000     1.2100 cp         1 8WC      -0.147500
      4 N1          12.0000     0.1600    -0.1400 n7         1 8WC      -0.761200
      5 C7           3.5550    -0.0000     1.2180 cp         1 8WC       0.441800
      6 C8           4.2480     0.6990     2.2180 cq         1 8WC      -0.100300
      7 N2           4.2180    -0.6650     0.2810 nb         1 8WC      -0.660000
      8 C9           3.5090     1.4380     3.2690 cq         1 8WC      -0.014000
      9 C10          3.8330     1.2470     4.6130 ca         1 8WC      -0.119000
     10 C11          3.1470     1.9330     5.5900 ca         1 8WC      -0.093000
     11 C12          2.1270     2.8210     5.2360 ca         1 8WC      -0.021000
     12 C13          1.4100     3.5310     6.2510 cg         1 8WC       0.238800
     13 C14          1.8040     3.0110     3.8900 ca         1 8WC      -0.093000
     14 C15          2.4950     2.3270     2.9140 ca         1 8WC      -0.119000
     15 N            0.8550     4.1090     7.0570 n1         1 8WC      -0.362800
     16 C1          -0.6950     0.0070     1.1960 ca         1 8WC      -0.071300
     17 C16          5.6440     0.6870     2.2080 ca         1 8WC      -0.197000
     18 C17          6.2890    -0.0220     1.2020 ca         1 8WC       0.090800
     19 C18          8.3200    -0.2310     0.6440 c3         1 8WC      -0.015600
     20 C19          9.6130    -1.3480     0.1610 c3         1 8WC      -0.052700
     21 C2          -0.0120     0.0110     2.3990 ca         1 8WC      -0.138000
     22 C20          9.9650    -0.8100    -1.2610 c3         1 8WC      -0.055400
     23 C21         10.9750     0.1340    -0.8850 c3         1 8WC       0.139300
     24 C22         11.3140    -0.5000     1.4110 c3         1 8WC       0.139300
     25 C23         10.5330    -1.7680     1.0970 c3         1 8WC      -0.055400
     26 C24          5.5340    -0.6930     0.2480 ca         1 8WC       0.317200
     27 C3           1.3680     0.0000     2.4120 ca         1 8WC      -0.103000
     28 H1          -0.5420    -0.0000    -0.9380 ha         1 8WC       0.133500
     29 H2           1.9210    -0.0060    -0.9380 ha         1 8WC       0.143500
     30 H5           4.5660     0.5010     4.8930 ha         1 8WC       0.149500
     31 H6           3.3990     1.7850     6.6330 ha         1 8WC       0.144000
     32 H7           1.0140     3.6990     3.6140 ha         1 8WC       0.144000
     33 H8           2.1920     2.4180     1.8780 ha         1 8WC       0.149500
     34 H12          6.1960     1.2200     2.9720 ha         1 8WC       0.145000
     35 H13          8.6580     0.2860     1.5340 h1         1 8WC       0.037200
     36 H14          8.2200     0.5040    -0.1440 h1         1 8WC       0.037200
     37 H15          9.0860    -2.2690    -0.0550 hc         1 8WC       0.029700
     38 H16         -0.5610     0.0170     3.3330 ha         1 8WC       0.133500
     39 H17         10.3700    -1.5930    -1.8900 hc         1 8WC       0.067700
     40 H18          9.1150    -0.3180    -1.7190 hc         1 8WC       0.067700
     41 H19         11.3700     0.4520    -1.8430 h1         1 8WC       0.014700
     42 H20         10.3930     0.9700    -0.5170 h1         1 8WC       0.014700
     43 H21         12.1220    -0.7320     2.0950 h1         1 8WC       0.014700
     44 H22         10.6520     0.2330     1.8560 h1         1 8WC       0.014700
     45 H23         11.1860    -2.5230     0.6770 hc         1 8WC       0.067700
     46 H24         10.0320    -2.1360     1.9840 hc         1 8WC       0.067700
     47 H25          6.0440    -1.2460    -0.5310 h4         1 8WC       0.052100
     48 H26          1.9030     0.0000     3.3540 ha         1 8WC       0.143500
     49 C           -2.0160     0.4700     1.4110 c3         1 8WC      -0.053800
     50 O            7.0420    -0.7290     0.9130 os         1 8WC      -0.161900
     51 H3          12.2870     1.1080    -0.0000 hn         1 8WC       0.362800
     52 H9          -2.4810     0.6910     0.4580 hc         1 8WC       0.044700
     53 H10         -1.9900     1.3670     2.0170 hc         1 8WC       0.044700
     54 H11         -2.5880    -0.2950     1.9230 hc         1 8WC       0.044700
@<TRIPOS>BOND
     1    49    16 1
     2    16     1 ar
     3    16    21 ar
     4     1     2 ar
     5    15    12 3
     6    12    11 1
     7    21    27 ar
     8     2     3 ar
     9    11    13 ar
    10    11    10 ar
    11    13    14 ar
    12    10     9 ar
    13    27     3 ar
    14     3     5 1
    15    14     8 1
    16     9     8 2
    17     8     6 1
    18     5     6 1
    19     5     7 ar
    20     6    17 2
    21     7    26 ar
    22    17    18 ar
    23    26    18 ar
    24    18    50 1
    25    50    19 1
    26    20    19 1
    27    20    25 1
    28    20    22 1
    29    23    22 1
    30    23     4 1
    31    24    25 1
    32    24     4 1
    33     1    28 1
    34     2    29 1
    35     4    51 1
    36     9    30 1
    37    10    31 1
    38    13    32 1
    39    14    33 1
    40    49    52 1
    41    49    53 1
    42    49    54 1
    43    17    34 1
    44    19    35 1
    45    19    36 1
    46    20    37 1
    47    21    38 1
    48    22    39 1
    49    22    40 1
    50    23    41 1
    51    23    42 1
    52    24    43 1
    53    24    44 1
    54    25    45 1
    55    25    46 1
    56    26    47 1
    57    27    48 1
@<TRIPOS>SUBSTRUCTURE
     1 8WC         1 TEMP              0 ****  ****    0 ROOT
