@<TRIPOS>MOLECULE
8WE
   81    84     1     0     0
SMALL
bcc


@<TRIPOS>ATOM
      1 C1           0.0000     0.0000     0.0000 c2         1 8WE       0.374000
      2 O1          -0.5940     1.0220     0.2510 o          1 8WE      -0.408000
      3 C2           1.5060     0.0000     0.0000 c3         1 8WE      -0.108000
      4 C3           2.0370     0.0000     1.4340 c3         1 8WE      -0.109000
      5 C4           3.3130    -0.8260     1.5160 c3         1 8WE      -0.108000
      6 C5           3.0730    -2.2620     1.9660 c3         1 8WE      -0.073000
      7 C21          1.6580    -2.7290     1.6410 c3         1 8WE      -0.162000
      8 C6           4.0780    -3.1760     1.2540 c3         1 8WE      -0.151000
      9 C7           3.6910    -4.6200     1.4460 c2         1 8WE       0.275000
     10 O7           3.5410    -5.0660     2.5590 o          1 8WE      -0.318000
     11 C8           3.5010    -5.5170     0.2480 c3         1 8WE      -0.156000
     12 C9           2.0090    -5.6670    -0.0550 c3         1 8WE      -0.106000
     13 C10          1.7320    -7.0810    -0.5640 c3         1 8WE      -0.107000
     14 C11          0.3840    -7.1180    -1.2840 c3         1 8WE       0.069000
     15 C12         -0.5800    -8.0290    -0.5200 c3         1 8WE      -0.142000
     16 C13         -1.9320    -8.0490    -1.2370 c3         1 8WE      -0.087000
     17 C22         -2.9260    -8.8840    -0.4270 c3         1 8WE      -0.111000
     18 C14         -2.4620    -6.6180    -1.3690 c3         1 8WE      -0.145000
     19 C15         -1.4150    -5.7380    -2.0480 c3         1 8WE       0.124000
     20 O11         -0.1730    -5.8030    -1.3490 os         1 8WE      -0.254000
     21 C16         -1.9060    -4.3300    -2.1830 c2         1 8WE      -0.192000
     22 C17         -2.0230    -3.4740    -1.1950 c2         1 8WE      -0.076000
     23 C23         -1.6410    -3.8560     0.2070 c3         1 8WE      -0.123000
     24 C18         -2.5700    -2.1110    -1.5220 c3         1 8WE      -0.065000
     25 C19         -2.0790    -1.0000    -0.6100 c3         1 8WE       0.072000
     26 O19         -0.6710    -1.1220    -0.3080 os         1 8WE      -0.224000
     27 C20         -2.9160    -0.9330     0.6690 c3         1 8WE       0.050000
     28 O20         -4.2970    -0.7960     0.3290 oh         1 8WE      -0.325000
     29 N20         -2.4930     0.2190     1.4690 ns         1 8WE      -0.038000
     30 C1'         -2.2690     0.0760     2.7900 c2         1 8WE       0.295000
     31 O1'         -2.4190    -1.0110     3.3190 o          1 8WE      -0.453000
     32 C2'         -1.8470     1.2250     3.5890 c2         1 8WE      -0.407000
     33 C3'         -1.5090     1.0590     4.8880 c3         1 8WE       0.069000
     34 C4'         -1.6980    -0.2410     5.5330 c2         1 8WE       0.110000
     35 C5'         -1.4700    -0.3760     6.8400 c2         1 8WE      -0.218000
     36 C6'         -1.6650    -1.7150     7.5030 DU         1 8WE       0.004000
     37 H21          1.8640    -0.8840    -0.5140 hc         1 8WE       0.080000
     38 H1           1.8640     0.8840    -0.5140 hc         1 8WE       0.080000
     39 H31          1.2900    -0.4260     2.0940 hc         1 8WE       0.073500
     40 H2           2.2470     1.0180     1.7400 hc         1 8WE       0.073500
     41 H41          3.9890    -0.3500     2.2160 hc         1 8WE       0.055500
     42 H3           3.7790    -0.8410     0.5380 hc         1 8WE       0.055500
     43 H4           3.2310    -2.3280     3.0360 hc         1 8WE       0.080000
     44 H211         1.5090    -3.7280     2.0320 hc         1 8WE       0.062000
     45 H213         0.9420    -2.0540     2.0930 hc         1 8WE       0.062000
     46 H212         1.5190    -2.7370     0.5670 hc         1 8WE       0.062000
     47 H61          5.0670    -3.0120     1.6640 hc         1 8WE       0.071500
     48 H62          4.0860    -2.9450     0.1950 hc         1 8WE       0.071500
     49 H81          4.0010    -5.0830    -0.6090 hc         1 8WE       0.070000
     50 H82          3.9260    -6.4910     0.4570 hc         1 8WE       0.070000
     51 H91          1.4380    -5.4900     0.8490 hc         1 8WE       0.078000
     52 H5           1.7200    -4.9470    -0.8110 hc         1 8WE       0.078000
     53 H162         1.7120    -7.7680     0.2730 hc         1 8WE       0.059500
     54 H102         2.5150    -7.3760    -1.2530 hc         1 8WE       0.059500
     55 H141         0.5170    -7.5010    -2.2880 h1         1 8WE       0.047000
     56 H142        -0.7120    -7.6520     0.4870 hc         1 8WE       0.067500
     57 H151        -0.1760    -9.0340    -0.4860 hc         1 8WE       0.067500
     58 H6          -1.8100    -8.4800    -2.2240 hc         1 8WE       0.064000
     59 H223        -3.9370    -8.6160    -0.7090 hc         1 8WE       0.043333
     60 H7          -2.7630    -9.9360    -0.6270 hc         1 8WE       0.043333
     61 H222        -2.7830    -8.6910     0.6300 hc         1 8WE       0.043333
     62 H121        -3.3670    -6.6240    -1.9660 hc         1 8WE       0.069000
     63 H122        -2.6780    -6.2230    -0.3840 hc         1 8WE       0.069000
     64 H111        -1.2520    -6.1320    -3.0440 h1         1 8WE       0.039000
     65 H101        -2.1940    -4.0040    -3.1750 ha         1 8WE       0.103000
     66 H231        -1.3100    -2.9760     0.7440 hc         1 8WE       0.071000
     67 H232        -0.8390    -4.5840     0.1770 hc         1 8WE       0.071000
     68 H233        -2.4990    -4.2850     0.7100 hc         1 8WE       0.071000
     69 H181        -3.6510    -2.1520    -1.4600 hc         1 8WE       0.077000
     70 H182        -2.2930    -1.8660    -2.5400 hc         1 8WE       0.077000
     71 H191        -2.2180    -0.0640    -1.1370 h1         1 8WE       0.068000
     72 H201        -2.7740    -1.8420     1.2410 h2         1 8WE       0.105000
     73 H202        -4.8280    -0.9980     1.0820 ho         1 8WE       0.204000
     74 H203        -2.4260     1.1230     1.0460 hn         1 8WE       0.133000
     75 H2'1        -1.7070     2.1890     3.1140 ha         1 8WE       0.130000
     76 H3'1        -1.1960     1.9120     5.4770 hc         1 8WE       0.125000
     77 H4'1        -2.4030     0.5800     5.5920 DU         1 8WE       0.021000
     78 H8          -2.4340    -0.7890     7.1150 DU         1 8WE       0.052000
     79 H9          -2.0820    -1.5710     8.4930 ha         1 8WE       0.040667
     80 H10         -0.7100    -2.2200     7.5840 ha         1 8WE       0.040667
     81 H11         -2.3430    -2.3170     6.9100 ha         1 8WE       0.040667
@<TRIPOS>BOND
     1     1     2 1   
     2     1     3 1   
     3     1    26 1   
     4     3     4 1   
     5     3    37 1   
     6     3    38 1   
     7     4     5 1   
     8     4    39 1   
     9     4    40 1   
    10     5     6 1   
    11     5    41 1   
    12     5    42 1   
    13     6     7 1   
    14     6     8 1   
    15     6    43 1   
    16     7    44 1   
    17     7    45 1   
    18     7    46 1   
    19     8     9 1   
    20     8    47 1   
    21     8    48 1   
    22     9    10 1   
    23     9    11 1   
    24    11    12 1   
    25    11    49 1   
    26    11    50 1   
    27    12    13 1   
    28    12    51 1   
    29    12    52 1   
    30    13    14 1   
    31    13    53 1   
    32    13    54 1   
    33    14    15 1   
    34    14    20 1   
    35    14    55 1   
    36    15    16 1   
    37    15    56 1   
    38    15    57 1   
    39    16    17 1   
    40    16    18 1   
    41    16    58 1   
    42    17    59 1   
    43    17    60 1   
    44    17    61 1   
    45    18    19 1   
    46    18    62 1   
    47    18    63 1   
    48    19    20 1   
    49    19    21 1   
    50    19    64 1   
    51    21    22 1   
    52    21    65 1   
    53    22    23 1   
    54    22    24 1   
    55    23    66 1   
    56    23    67 1   
    57    23    68 1   
    58    24    25 1   
    59    24    69 1   
    60    24    70 1   
    61    25    26 1   
    62    25    27 1   
    63    25    71 1   
    64    27    28 1   
    65    27    29 1   
    66    27    72 1   
    67    28    73 1   
    68    29    30 1   
    69    29    74 1   
    70    30    31 1   
    71    30    32 1   
    72    32    33 1   
    73    32    75 1   
    74    33    34 1   
    75    33    76 1   
    76    33    77 1   
    77    34    35 1   
    78    34    77 1   
    79    35    36 1   
    80    35    78 1   
    81    36    78 1   
    82    36    79 1   
    83    36    80 1   
    84    36    81 1   
@<TRIPOS>SUBSTRUCTURE
     1 8WE         1 TEMP              0 ****  ****    0 ROOT
