@<TRIPOS>MOLECULE
molecule
   81    82     1     0     0
SMALL
bcc


@<TRIPOS>ATOM
      1 C1           0.0000     0.0000     0.0000 c          1 8WE       0.640100
      2 O1          -0.5940     1.0220     0.2510 o          1 8WE      -0.550000
      3 C2           1.5060     0.0000     0.0000 c3         1 8WE      -0.124400
      4 C3           2.0370     0.0000     1.4340 c3         1 8WE      -0.075400
      5 C4           3.3130    -0.8260     1.5160 c3         1 8WE      -0.079400
      6 C5           3.0730    -2.2620     1.9660 c3         1 8WE      -0.061700
      7 C21          1.6580    -2.7290     1.6410 c3         1 8WE      -0.105100
      8 C6           4.0780    -3.1760     1.2540 c3         1 8WE      -0.177400
      9 C7           3.6910    -4.6200     1.4460 c          1 8WE       0.571100
     10 O7           3.5410    -5.0660     2.5590 o          1 8WE      -0.527100
     11 C8           3.5010    -5.5170     0.2480 c3         1 8WE      -0.185400
     12 C9           2.0090    -5.6670    -0.0550 c3         1 8WE      -0.063400
     13 C10          1.7320    -7.0810    -0.5640 c3         1 8WE      -0.075400
     14 C11          0.3840    -7.1180    -1.2840 c3         1 8WE       0.145100
     15 C12         -0.5800    -8.0290    -0.5200 c3         1 8WE      -0.108400
     16 C13         -1.9320    -8.0490    -1.2370 c3         1 8WE      -0.077700
     17 C22         -2.9260    -8.8840    -0.4270 c3         1 8WE      -0.086100
     18 C14         -2.4620    -6.6180    -1.3690 c3         1 8WE      -0.101400
     19 C15         -1.4150    -5.7380    -2.0480 c3         1 8WE       0.222300
     20 O11         -0.1730    -5.8030    -1.3490 os         1 8WE      -0.498600
     21 C16         -1.9060    -4.3300    -2.1830 c2         1 8WE      -0.550200
     22 C17         -2.0230    -3.4740    -1.1950 c2         1 8WE       0.047600
     23 C23         -1.6410    -3.8560     0.2070 c3         1 8WE      -0.146900
     24 C18         -2.5700    -2.1110    -1.5220 c3         1 8WE      -0.036200
     25 C19         -2.0790    -1.0000    -0.6100 c3         1 8WE       0.144100
     26 O19         -0.6710    -1.1220    -0.3080 os         1 8WE      -0.419900
     27 C20         -2.9160    -0.9330     0.6690 c3         1 8WE       0.291500
     28 O20         -4.2970    -0.7960     0.3290 oh         1 8WE      -0.616800
     29 N20         -2.4930     0.2190     1.4690 ns         1 8WE      -0.604900
     30 C1'         -2.2690     0.0760     2.7900 c          1 8WE       0.770300
     31 O1'         -2.4190    -1.0110     3.3190 o          1 8WE      -0.652100
     32 C2'         -1.8470     1.2250     3.5890 ce         1 8WE      -0.261200
     33 C3'         -1.5090     1.0590     4.8880 cf         1 8WE      -0.140000
     34 C4'         -1.6980    -0.2410     5.5330 cf         1 8WE      -0.119000
     35 C5'         -1.4700    -0.3760     6.8400 c2         1 8WE      -0.242200
     36 C6'         -1.6650    -1.7150     7.5030 c3         1 8WE      -0.048900
     37 H21          1.8640     0.8840    -0.5140 hc         1 8WE       0.074200
     38 H1           1.8640    -0.8830    -0.5150 hc         1 8WE       0.074200
     39 H31          1.2900    -0.4260     2.0940 hc         1 8WE       0.060200
     40 H2           2.2470     1.0180     1.7400 hc         1 8WE       0.060200
     41 H41          3.9890    -0.3500     2.2160 hc         1 8WE       0.044200
     42 H3           3.7790    -0.8410     0.5380 hc         1 8WE       0.044200
     43 H4           3.2310    -2.3280     3.0360 hc         1 8WE       0.066700
     44 H211         0.9420    -2.0320     2.0600 hc         1 8WE       0.043700
     45 H213         1.4960    -3.7120     2.0650 hc         1 8WE       0.043700
     46 H212         1.5310    -2.7740     0.5660 hc         1 8WE       0.043700
     47 H61          5.0670    -3.0120     1.6640 hc         1 8WE       0.061200
     48 H62          4.0860    -2.9450     0.1950 hc         1 8WE       0.061200
     49 H81          4.0010    -5.0830    -0.6090 hc         1 8WE       0.061200
     50 H82          3.9260    -6.4910     0.4570 hc         1 8WE       0.061200
     51 H91          1.4380    -5.4900     0.8490 hc         1 8WE       0.058700
     52 H5           1.7200    -4.9470    -0.8110 hc         1 8WE       0.058700
     53 H162         1.7120    -7.7680     0.2730 hc         1 8WE       0.050700
     54 H102         2.5150    -7.3760    -1.2530 hc         1 8WE       0.050700
     55 H141         0.5170    -7.5010    -2.2880 h1         1 8WE       0.042700
     56 H142        -0.1760    -9.0340    -0.4860 hc         1 8WE       0.055200
     57 H151        -0.7120    -7.6520     0.4870 hc         1 8WE       0.055200
     58 H6          -1.8100    -8.4800    -2.2240 hc         1 8WE       0.053700
     59 H223        -2.5810    -9.9100    -0.3780 hc         1 8WE       0.037367
     60 H7          -3.0040    -8.4810     0.5760 hc         1 8WE       0.037367
     61 H222        -3.8980    -8.8520    -0.9040 hc         1 8WE       0.037367
     62 H121        -2.6780    -6.2230    -0.3840 hc         1 8WE       0.063700
     63 H122        -3.3660    -6.6240    -1.9660 hc         1 8WE       0.063700
     64 H111        -1.2520    -6.1320    -3.0440 h1         1 8WE       0.069700
     65 H101        -0.9110    -4.5970    -1.8480 ha         1 8WE       0.333000
     66 H231        -1.3190    -4.8900     0.2240 hc         1 8WE       0.064367
     67 H232        -2.4970    -3.7340     0.8600 hc         1 8WE       0.064367
     68 H233        -0.8330    -3.2200     0.5470 hc         1 8WE       0.064367
     69 H181        -3.6510    -2.1520    -1.4600 hc         1 8WE       0.096200
     70 H182        -2.2930    -1.8660    -2.5400 hc         1 8WE       0.096200
     71 H191        -2.2180    -0.0640    -1.1370 h1         1 8WE       0.067700
     72 H201        -2.7740    -1.8420     1.2410 h2         1 8WE       0.092700
     73 H202        -4.7540    -0.3720     1.0360 ho         1 8WE       0.423000
     74 H203        -2.4250     1.1230     1.0450 hn         1 8WE       0.360500
     75 H2'1        -2.8680     0.8640     3.6130 ha         1 8WE       0.054000
     76 H3'1        -0.7760     0.2670     4.7910 ha         1 8WE       0.166000
     77 H4'1        -2.0230    -1.0930     4.9480 ha         1 8WE       0.233000
     78 H8          -1.1450     0.4760     7.4250 ha         1 8WE       0.134000
     79 H9          -2.6700    -2.0710     7.3100 hc         1 8WE       0.040033
     80 H10         -0.9480    -2.4230     7.1050 hc         1 8WE       0.040033
     81 H11         -1.5170    -1.6140     8.5720 hc         1 8WE       0.040033
@<TRIPOS>BOND
     1    10     9 2
     2     7     6 1
     3     9     8 1
     4     9    11 1
     5     8     6 1
     6     6     5 1
     7    11    12 1
     8    12    13 1
     9     5     4 1
    10    13    14 1
    11     4     3 1
    12    14    15 1
    13    14    20 1
    14     3     1 1
    15    15    16 1
    16    20    19 1
    17     2     1 2
    18     1    26 1
    19    16    17 1
    20    16    18 1
    21    19    18 1
    22    19    21 1
    23    26    25 1
    24    21    22 2
    25    23    22 1
    26    22    24 1
    27    25    24 1
    28    25    27 1
    29    28    27 1
    30    27    29 1
    31    29    30 1
    32    30    32 1
    33    30    31 2
    34    32    33 2
    35    33    34 1
    36    34    35 2
    37    35    36 1
    38     3    37 1
    39     3    38 1
    40     4    39 1
    41     4    40 1
    42     5    41 1
    43     5    42 1
    44     6    43 1
    45     7    44 1
    46     7    45 1
    47     7    46 1
    48     8    47 1
    49     8    48 1
    50    11    49 1
    51    11    50 1
    52    12    51 1
    53    12    52 1
    54    13    53 1
    55    13    54 1
    56    14    55 1
    57    15    56 1
    58    15    57 1
    59    16    58 1
    60    17    59 1
    61    17    60 1
    62    17    61 1
    63    18    62 1
    64    18    63 1
    65    19    64 1
    66    21    65 1
    67    23    66 1
    68    23    67 1
    69    23    68 1
    70    24    69 1
    71    24    70 1
    72    25    71 1
    73    27    72 1
    74    28    73 1
    75    29    74 1
    76    32    75 1
    77    33    76 1
    78    34    77 1
    79    35    78 1
    80    36    79 1
    81    36    80 1
    82    36    81 1
@<TRIPOS>SUBSTRUCTURE
     1 8WE         1 TEMP              0 ****  ****    0 ROOT
