@<TRIPOS>MOLECULE
molecule
   55    56     1     0     0
SMALL
bcc


@<TRIPOS>ATOM
      1 C1           0.0000     0.0000     0.0000 ca         1 8WF       0.145100
      2 O1          -0.6990     0.0050    -1.1620 oh         1 8WF      -0.503100
      3 C2           1.3810     0.0000     0.0000 ca         1 8WF      -0.204000
      4 C3           2.0710     0.0000     1.2080 ca         1 8WF      -0.022600
      5 N1           1.4460    -0.0000     2.3610 na         1 8WF       0.113600
      6 O4           2.2040     0.0000     3.5580 o          1 8WF      -0.386000
      7 C5           0.1100     0.0010     2.4350 ca         1 8WF      -0.004300
      8 C6          -0.5470     0.0020     3.6770 ca         1 8WF      -0.088000
      9 C7          -1.9070     0.0030     3.7230 ca         1 8WF      -0.116000
     10 C8          -2.6650     0.0030     2.5530 ca         1 8WF      -0.118000
     11 C9          -2.0630     0.0010     1.3310 ca         1 8WF      -0.103000
     12 C10         -0.6630     0.0000     1.2480 ca         1 8WF      -0.073000
     13 C11          3.5780    -0.0010     1.1910 c3         1 8WF      -0.033100
     14 C12          5.6180     1.4350     1.0420 c3         1 8WF      -0.080400
     15 C13          4.0880     1.4360     1.0590 c3         1 8WF      -0.076400
     16 C14          6.1270     2.8710     0.9100 c3         1 8WF      -0.081400
     17 C15          7.6570     2.8710     0.8930 c3         1 8WF      -0.081400
     18 C16          8.1660     4.3080     0.7610 c3         1 8WF      -0.081400
     19 C17          9.6960     4.3070     0.7440 c3         1 8WF      -0.082400
     20 H1          -0.5110    -0.7820    -1.6450 ho         1 8WF       0.431000
     21 H2           1.9250     0.0000    -0.9370 ha         1 8WF       0.161000
     22 H4           0.0270     0.0020     4.5960 ha         1 8WF       0.181000
     23 H5          -2.4090     0.0050     4.6830 ha         1 8WF       0.142000
     24 H6          -3.7460     0.0040     2.6160 ha         1 8WF       0.137000
     25 H7          -2.6620     0.0010     0.4290 ha         1 8WF       0.153000
     26 H8           3.9290    -0.5880     0.3510 hc         1 8WF       0.074200
     27 H9           3.9490    -0.4320     2.1130 hc         1 8WF       0.074200
     28 H10          5.9690     0.8490     0.2020 hc         1 8WF       0.043700
     29 H11          5.9890     1.0040     1.9640 hc         1 8WF       0.043700
     30 H12          3.7170     1.8670     0.1370 hc         1 8WF       0.050200
     31 H13          3.7360     2.0220     1.8990 hc         1 8WF       0.050200
     32 H14          5.7560     3.3030    -0.0120 hc         1 8WF       0.042200
     33 H15          5.7750     3.4580     1.7500 hc         1 8WF       0.042200
     34 H16          8.0280     2.4400     1.8150 hc         1 8WF       0.041700
     35 H17          8.0090     2.2850     0.0530 hc         1 8WF       0.041700
     36 H18          7.7950     4.7390    -0.1610 hc         1 8WF       0.041200
     37 H19          7.8150     4.8940     1.6010 hc         1 8WF       0.041200
     38 H20         10.0670     3.8760     1.6660 hc         1 8WF       0.041200
     39 H21         10.0480     3.7200    -0.0960 hc         1 8WF       0.041200
     40 C4          10.2050     5.7430     0.6120 c3         1 8WF      -0.081400
     41 C18         11.7350     5.7430     0.5950 c3         1 8WF      -0.082400
     42 C19         12.2450     7.1790     0.4630 c3         1 8WF      -0.081400
     43 C20         13.7740     7.1790     0.4460 c3         1 8WF      -0.084400
     44 C21         14.2840     8.6160     0.3140 c3         1 8WF      -0.092100
     45 H22          9.8530     6.3300     1.4520 hc         1 8WF       0.041200
     46 H23          9.8340     6.1740    -0.3100 hc         1 8WF       0.041200
     47 H24         12.0870     5.1570    -0.2450 hc         1 8WF       0.040700
     48 H25         12.1070     5.3120     1.5170 hc         1 8WF       0.040700
     49 H26         11.8930     7.7660     1.3030 hc         1 8WF       0.040700
     50 H27         11.8740     7.6110    -0.4590 hc         1 8WF       0.040700
     51 H28         14.1260     6.5920    -0.3940 hc         1 8WF       0.039700
     52 H29         14.1450     6.7480     1.3680 hc         1 8WF       0.039700
     53 H30         13.9100     9.0480    -0.6060 hc         1 8WF       0.032367
     54 H31         15.3670     8.6140     0.2980 hc         1 8WF       0.032367
     55 H32         13.9360     9.2010     1.1560 hc         1 8WF       0.032367
@<TRIPOS>BOND
     1     2     1 1   
     2    19    18 1   
     3    11    10 ar  
     4    11    12 ar  
     5    18    17 1   
     6     1    12 ar  
     7     1     3 ar  
     8    10     9 ar  
     9    12     7 ar  
    10    17    16 1   
    11     3     4 ar  
    12    16    14 1   
    13     9     8 ar  
    14    14    15 1   
    15     7     8 ar  
    16     7     5 1   
    17     4     5 2   
    18     4    13 1   
    19     5     6 1   
    20    15    13 1   
    21     2    20 1   
    22     3    21 1   
    23     8    22 1   
    24     9    23 1   
    25    10    24 1   
    26    11    25 1   
    27    13    26 1   
    28    13    27 1   
    29    14    28 1   
    30    14    29 1   
    31    15    30 1   
    32    15    31 1   
    33    16    32 1   
    34    16    33 1   
    35    17    34 1   
    36    17    35 1   
    37    18    36 1   
    38    18    37 1   
    39    19    38 1   
    40    19    39 1   
    41    19    40 1   
    42    40    41 1   
    43    41    42 1   
    44    42    43 1   
    45    43    44 1   
    46    40    45 1   
    47    40    46 1   
    48    41    47 1   
    49    41    48 1   
    50    42    49 1   
    51    42    50 1   
    52    43    51 1   
    53    43    52 1   
    54    44    53 1   
    55    44    54 1   
    56    44    55 1   
@<TRIPOS>SUBSTRUCTURE
     1 8WF         1 TEMP              0 ****  ****    0 ROOT
