@<TRIPOS>MOLECULE
molecule
   51    55     1     0     0
SMALL
bcc


@<TRIPOS>ATOM
      1 C2           0.0000     0.0000     0.0000 ca         1 8WG       0.039400
      2 C3           1.3830     0.0000     0.0000 ca         1 8WG      -0.125500
      3 C4           2.0740     0.0000     1.1970 ca         1 8WG      -0.091500
      4 C5           1.3830     0.0000     2.3950 ca         1 8WG      -0.113300
      5 C6           2.1360    -0.0000     3.7000 c3         1 8WG       0.127600
      6 C8           2.0350     1.9210     5.3100 cc         1 8WG      -0.094300
      7 Cl1         -0.8680    -0.0000    -1.5030 cl         1 8WG      -0.108400
      8 N7           2.3810     1.3810     4.1220 na         1 8WG       0.063400
      9 C9           2.4360     3.2130     5.3080 cd         1 8WG      -0.302600
     10 C10          2.2510     4.2010     6.4310 c3         1 8WG       0.212100
     11 N11          3.4110     4.1440     7.3290 nq         1 8WG      -0.647600
     12 C12          3.1650     4.9160     8.5610 cy         1 8WG       0.087800
     13 C13          4.6060     5.4350     8.4600 cy         1 8WG       0.089700
     14 C14          4.4160     5.1590     6.9610 cy         1 8WG       0.087800
     15 N15          4.7590     6.8520     8.7940 ns         1 8WG      -0.561900
     16 C16          5.9450     7.3170     9.2350 c          1 8WG       0.610600
     17 O17          6.8880     6.5590     9.3550 o          1 8WG      -0.616100
     18 C18          6.0980     8.7450     9.5720 cd         1 8WG       0.186800
     19 C19          7.2420     9.3400    10.0220 cc         1 8WG      -0.154600
     20 N20          6.9560    10.6450    10.2080 na         1 8WG       0.095400
     21 N21          5.6110    10.8190     9.8580 nc         1 8WG      -0.174800
     22 N22          5.1370     9.6810     9.4840 nd         1 8WG      -0.335000
     23 C23          7.8770    11.6810    10.6840 cx         1 8WG      -0.012000
     24 C24          8.0410    11.8380    12.1960 cx         1 8WG      -0.131400
     25 C25          9.1670    11.2210    11.3650 cx         1 8WG      -0.131400
     26 C26          3.0540     3.4710     4.0790 cd         1 8WG       0.342200
     27 N27          3.0160     2.3750     3.3660 nc         1 8WG      -0.508800
     28 C28          0.0000     0.0010     2.3950 ca         1 8WG      -0.091500
     29 C29         -0.6910    -0.0050     1.1980 ca         1 8WG      -0.125500
     30 H1           1.9250    -0.0000    -0.9380 ha         1 8WG       0.146000
     31 H2           3.1570    -0.0000     1.1970 ha         1 8WG       0.141000
     32 H3           1.5510    -0.5100     4.4550 h1         1 8WG       0.065700
     33 H4           3.0830    -0.5120     3.5710 h1         1 8WG       0.065700
     34 H6           2.1590     5.2000     6.0220 h1         1 8WG       0.041200
     35 H7           1.3530     3.9540     6.9850 h1         1 8WG       0.041200
     36 H9           2.4250     5.6970     8.4290 h1         1 8WG       0.061450
     37 H10          3.0030     4.2870     9.4280 h1         1 8WG       0.061450
     38 H11          5.3280     4.7750     8.9250 h1         1 8WG       0.119700
     39 H12          3.9900     6.0010     6.4290 h1         1 8WG       0.061450
     40 H13          5.2960     4.7330     6.4960 h1         1 8WG       0.061450
     41 H14          3.9770     7.4730     8.7120 hn         1 8WG       0.331500
     42 H15          8.1960     8.8570    10.1960 h4         1 8WG       0.202000
     43 H16          7.9640    12.6010    10.1200 h1         1 8WG       0.120700
     44 H17          8.2170    12.8490    12.5450 hc         1 8WG       0.090200
     45 H18          7.4730    11.1430    12.8030 hc         1 8WG       0.090200
     46 H19         10.0310    11.8550    11.2050 hc         1 8WG       0.090200
     47 H20          9.2880    10.1490    11.4640 hc         1 8WG       0.090200
     48 H21          3.4830     4.4160     3.7690 h4         1 8WG       0.047100
     49 H22         -0.5410    -0.0010     3.3340 ha         1 8WG       0.141000
     50 H23         -1.7750    -0.0040     1.1980 ha         1 8WG       0.146000
     51 H5           1.6020     1.3900     6.1490 h4         1 8WG       0.171000
@<TRIPOS>BOND
     1     3     2 ar  
     2     3     4 ar  
     3     5     8 1   
     4     5     4 1   
     5    27     8 1   
     6    27    26 2   
     7     2     1 ar  
     8     8     6 1   
     9     4    28 ar  
    10    26     9 1   
    11    17    16 2   
    12    14    13 1   
    13    14    11 1   
    14     6     9 2   
    15    19    20 1   
    16    19    18 2   
    17    13    15 1   
    18    13    12 1   
    19     9    10 1   
    20    23    24 1   
    21    23    20 1   
    22    23    25 1   
    23    16    15 1   
    24    16    18 1   
    25     1     7 1   
    26     1    29 ar  
    27    11    10 1   
    28    11    12 1   
    29    24    25 1   
    30    20    21 1   
    31    28    29 ar  
    32    18    22 1   
    33    22    21 2   
    34     2    30 1   
    35     3    31 1   
    36     5    32 1   
    37     5    33 1   
    38     6    51 1   
    39    10    34 1   
    40    10    35 1   
    41    12    36 1   
    42    12    37 1   
    43    13    38 1   
    44    14    39 1   
    45    14    40 1   
    46    15    41 1   
    47    19    42 1   
    48    23    43 1   
    49    24    44 1   
    50    24    45 1   
    51    25    46 1   
    52    25    47 1   
    53    26    48 1   
    54    28    49 1   
    55    29    50 1   
@<TRIPOS>SUBSTRUCTURE
     1 8WG         1 TEMP              0 ****  ****    0 ROOT
