@<TRIPOS>MOLECULE
8WH
   52    56     1     0     0
SMALL
bcc


@<TRIPOS>ATOM
      1 OAX          0.0000     0.0000     0.0000 o          1 8WH      -0.880300
      2 CBB          1.3470     0.0000     0.0000 c          1 8WH       0.973200
      3 OBC          1.9530     0.0000     1.0520 o          1 8WH      -0.880300
      4 CBA          2.0860     0.0010    -1.2790 ca         1 8WH      -0.101600
      5 CAZ          3.4820     0.0010    -1.2830 ca         1 8WH      -0.035000
      6 CBF          1.3910    -0.0050    -2.4900 ca         1 8WH      -0.046000
      7 CBE          2.0870    -0.0040    -3.6820 ca         1 8WH      -0.144000
      8 CBD          3.4710     0.0020    -3.6780 ca         1 8WH      -0.114000
      9 CAY          4.1660     0.0020    -2.4800 ca         1 8WH      -0.185300
     10 CAW          5.6730     0.0020    -2.4860 c3         1 8WH       0.036600
     11 NAV          6.1610    -1.3790    -2.4890 na         1 8WH       0.618400
     12 CAU          7.0190    -1.9120    -3.3880 cc         1 8WH      -0.471600
     13 NAR          5.8510    -2.2880    -1.6320 nc         1 8WH      -0.352800
     14 NAQ          6.4460    -3.3930    -1.9120 nd         1 8WH      -0.300000
     15 CAP          7.1990    -3.2130    -3.0130 cd         1 8WH       0.326800
     16 CAO          8.0530    -4.2240    -3.6820 ca         1 8WH      -0.104500
     17 CAM          8.1330    -5.5300    -3.1730 ca         1 8WH       0.230400
     18 NAK          7.4380    -5.8980    -2.0680 ne         1 8WH      -0.575100
     19 CAT          8.7740    -3.8850    -4.8220 ca         1 8WH      -0.060000
     20 CAS          9.5700    -4.8210    -5.4610 ca         1 8WH      -0.157000
     21 CAN          9.6600    -6.1110    -4.9780 ca         1 8WH      -0.020000
     22 CAL          8.9420    -6.4760    -3.8420 ca         1 8WH      -0.273600
     23 CAJ          8.9960    -7.8420    -3.2970 c          1 8WH       0.651700
     24 OAI          9.2400    -8.8020    -3.9970 o          1 8WH      -0.567100
     25 CAG          8.7250    -7.9810    -1.8110 c3         1 8WH      -0.200700
     26 CAH          7.6380    -7.0090    -1.4300 c2         1 8WH       0.491200
     27 NAE          6.8360    -7.3060    -0.3660 nh         1 8WH      -0.387600
     28 CAF          7.0930    -8.4920     0.4680 c3         1 8WH       0.107800
     29 CAC          7.1080    -8.0540     1.9370 c3         1 8WH       0.198900
     30 OAB          5.9130    -7.3220     2.2230 os         1 8WH      -0.409600
     31 CAA          5.7740    -6.1130     1.4740 c3         1 8WH       0.198900
     32 CAD          5.6930    -6.4480    -0.0160 c3         1 8WH       0.107800
     33 H2           4.0280     0.0010    -0.3470 ha         1 8WH       0.129000
     34 H3           0.3080    -0.0090    -2.4940 ha         1 8WH       0.130000
     35 H4           1.5500    -0.0060    -4.6220 ha         1 8WH       0.087000
     36 H5           4.0130     0.0020    -4.6160 ha         1 8WH       0.081000
     37 H6           6.0370     0.5130    -1.6030 h1         1 8WH       0.032700
     38 H7           6.0300     0.5130    -3.3720 h1         1 8WH       0.032700
     39 H8           7.4700    -1.4110    -4.2350 h4         1 8WH       0.154000
     40 H9           8.7150    -2.8770    -5.2140 ha         1 8WH       0.101000
     41 H10         10.1250    -4.5390    -6.3470 ha         1 8WH       0.101000
     42 H11         10.2850    -6.8380    -5.4830 ha         1 8WH       0.107000
     43 H12          9.6260    -7.7540    -1.2550 hc         1 8WH       0.053700
     44 H13          8.4010    -8.9920    -1.5940 hc         1 8WH       0.053700
     45 H14          8.0530    -8.9200     0.2060 h1         1 8WH       0.047950
     46 H15          6.3080    -9.2220     0.3140 h1         1 8WH       0.047950
     47 H16          7.1560    -8.9290     2.5740 h1         1 8WH       0.017700
     48 H17          7.9690    -7.4210     2.1170 h1         1 8WH       0.017700
     49 H18          6.6320    -5.4760     1.6540 h1         1 8WH       0.017700
     50 H19          4.8680    -5.6030     1.7780 h1         1 8WH       0.017700
     51 H20          4.7690    -6.9740    -0.2200 h1         1 8WH       0.047950
     52 H21          5.7340    -5.5340    -0.5960 h1         1 8WH       0.047950
@<TRIPOS>BOND
     1     1     2 1   
     2     2     3 1   
     3     2     4 1   
     4     4     5 ar  
     5     4     6 ar  
     6     5     9 ar  
     7     5    33 1   
     8     6     7 ar  
     9     6    34 1   
    10     7     8 ar  
    11     7    35 1   
    12     8     9 ar  
    13     8    36 1   
    14     9    10 1   
    15    10    11 1   
    16    10    37 1   
    17    10    38 1   
    18    11    12 1   
    19    11    13 1   
    20    12    15 2   
    21    12    39 1   
    22    13    14 2   
    23    14    15 1   
    24    15    16 1   
    25    16    17 ar  
    26    16    19 ar  
    27    17    18 1   
    28    17    22 ar  
    29    18    26 2   
    30    19    20 ar  
    31    19    40 1   
    32    20    21 ar  
    33    20    41 1   
    34    21    22 ar  
    35    21    42 1   
    36    22    23 1   
    37    23    24 2   
    38    23    25 1   
    39    25    26 1   
    40    25    43 1   
    41    25    44 1   
    42    26    27 1   
    43    27    28 1   
    44    27    32 1   
    45    28    29 1   
    46    28    45 1   
    47    28    46 1   
    48    29    30 1   
    49    29    47 1   
    50    29    48 1   
    51    30    31 1   
    52    31    32 1   
    53    31    49 1   
    54    31    50 1   
    55    32    51 1   
    56    32    52 1   
@<TRIPOS>SUBSTRUCTURE
     1 8WH         1 TEMP              0 ****  ****    0 ROOT
