@<TRIPOS>MOLECULE
8WJ
   60    63     1     0     0
SMALL
bcc


@<TRIPOS>ATOM
      1 N3           0.0000     0.0000     0.0000 ns         1 8WJ      -0.065400
      2 C4           1.3900     0.0000     0.0000 cc         1 8WJ       0.398300
      3 C6           3.4390    -0.0010     0.8760 cd         1 8WJ       0.382200
      4 C7           3.8180    -0.0030    -0.4020 cc         1 8WJ      -0.126400
      5 C13         -4.6160     0.0080    -0.5570 c3         1 8WJ      -0.029900
      6 C15         -6.6610     1.2440    -1.2860 c3         1 8WJ      -0.026400
      7 C17         -4.7360     2.4910    -0.2960 c3         1 8WJ      -0.029900
      8 C20         -2.7740     1.0930     4.6480 cc         1 8WJ      -0.150000
      9 C21         -3.5820     0.0580     5.1400 cc         1 8WJ      -0.057100
     10 C22         -3.9150    -0.9770     4.3150 cd         1 8WJ      -0.109200
     11 C28         -2.6530    -0.0470     7.8080 c3         1 8WJ      -0.014900
     12 C2          -0.6740     0.0120     1.1680 c          1 8WJ       0.534100
     13 N5           2.1320     0.0000     1.0620 nd         1 8WJ      -0.557000
     14 S8           2.3680    -0.0080    -1.4020 ss         1 8WJ      -0.320300
     15 C9          -2.1800     0.0130     1.1680 c3         1 8WJ      -0.115300
     16 C11         -2.6910     1.2550     0.4340 c3         1 8WJ      -0.037400
     17 C12         -4.2150     1.1930     0.3250 c3         1 8WJ      -0.055700
     18 C14         -6.1410    -0.0530    -0.6650 c3         1 8WJ      -0.020400
     19 C16         -6.2610     2.4290    -0.4050 c3         1 8WJ      -0.020400
     20 N18         -2.6680     0.0270     2.5490 n          1 8WJ       0.169000
     21 C19         -2.3360     1.0570     3.3680 cd         1 8WJ      -0.123400
     22 C23         -3.4420    -0.9810     2.9930 c          1 8WJ       0.569700
     23 O24         -3.7330    -1.9010     2.2450 o          1 8WJ      -0.707500
     24 O27         -4.7360     1.3830     6.9490 o          1 8WJ      -0.582300
     25 O26         -4.9490    -1.0820     6.9250 o          1 8WJ      -0.582300
     26 C29         -3.0210    -0.1560     9.2980 c3         1 8WJ       0.008100
     27 C30         -2.4730    -1.5110     9.7900 c3         1 8WJ      -0.022900
     28 C31         -1.3280    -1.8400     8.7990 c3         1 8WJ      -0.022900
     29 C32         -1.8930    -1.3400     7.4470 c3         1 8WJ       0.008100
     30 H1          -0.5000    -0.0490    -0.8660 hn         1 8WJ       0.178500
     31 H2           4.1470     0.0010     1.6970 h4         1 8WJ       0.004100
     32 H3           4.8400    -0.0040    -0.7630 h4         1 8WJ       0.162000
     33 H4          -4.1900     0.1350    -1.5450 hc         1 8WJ       0.019450
     34 H5          -4.2500    -0.9100    -0.1140 hc         1 8WJ       0.019450
     35 H6          -7.7410     1.2000    -1.3610 hc         1 8WJ       0.013700
     36 H7          -6.2310     1.3690    -2.2730 hc         1 8WJ       0.013700
     37 H8          -4.3100     2.6140    -1.2840 hc         1 8WJ       0.019450
     38 H9          -4.4540     3.3280     0.3320 hc         1 8WJ       0.019450
     39 H10         -2.5010     1.9210     5.2910 ha         1 8WJ       0.129000
     40 H11         -4.5380    -1.7860     4.6770 ha         1 8WJ       0.162000
     41 H12         -2.0140     0.8130     7.6480 h1         1 8WJ       0.074700
     42 H13         -2.5420    -0.8760     0.6660 h1         1 8WJ       0.107700
     43 H14         -2.4040     2.1430     0.9850 hc         1 8WJ       0.027700
     44 H15         -2.2590     1.2910    -0.5590 hc         1 8WJ       0.027700
     45 H16         -4.6470     1.0680     1.3110 hc         1 8WJ       0.039700
     46 H17         -6.5670    -0.1740     0.3240 hc         1 8WJ       0.017700
     47 H18         -6.4240    -0.8900    -1.2910 hc         1 8WJ       0.017700
     48 H19         -6.6270     3.3470    -0.8480 hc         1 8WJ       0.017700
     49 H20         -6.6870     2.3030     0.5830 hc         1 8WJ       0.017700
     50 H21         -1.7120     1.8600     2.9930 h4         1 8WJ       0.139000
     51 H22         -2.5600     0.6530     9.8520 hc         1 8WJ       0.025200
     52 H23         -4.0970    -0.1280     9.4160 hc         1 8WJ       0.025200
     53 H24         -2.0850    -1.4180    10.7980 hc         1 8WJ       0.020200
     54 H25         -3.2440    -2.2700     9.7420 hc         1 8WJ       0.020200
     55 H26         -1.1460    -2.9070     8.7660 hc         1 8WJ       0.020200
     56 H27         -0.4280    -1.2970     9.0610 hc         1 8WJ       0.020200
     57 H28         -2.5720    -2.0720     7.0270 hc         1 8WJ       0.025200
     58 H29         -1.0860    -1.1230     6.7570 hc         1 8WJ       0.025200
     59 S25         -4.1580     0.0920     6.8040 sy         1 8WJ       0.866900
     60 O1          -0.0670     0.0230     2.2170 o          1 8WJ      -0.567100
@<TRIPOS>BOND
     1     1     2 1   
     2     1    12 1   
     3     1    30 1   
     4     2    13 2   
     5     2    14 1   
     6     3     4 2   
     7     3    13 1   
     8     3    31 1   
     9     4    14 1   
    10     4    32 1   
    11     5    17 1   
    12     5    18 1   
    13     5    33 1   
    14     5    34 1   
    15     6    18 1   
    16     6    19 1   
    17     6    35 1   
    18     6    36 1   
    19     7    17 1   
    20     7    19 1   
    21     7    37 1   
    22     7    38 1   
    23     8     9 1   
    24     8    21 2   
    25     8    39 1   
    26     9    10 2   
    27     9    59 1   
    28    10    22 1   
    29    10    40 1   
    30    11    26 1   
    31    11    29 1   
    32    11    41 1   
    33    11    59 1   
    34    12    15 1   
    35    12    60 2   
    36    15    16 1   
    37    15    20 1   
    38    15    42 1   
    39    16    17 1   
    40    16    43 1   
    41    16    44 1   
    42    17    45 1   
    43    18    46 1   
    44    18    47 1   
    45    19    48 1   
    46    19    49 1   
    47    20    21 1   
    48    20    22 1   
    49    21    50 1   
    50    22    23 2   
    51    24    59 2   
    52    25    59 2   
    53    26    27 1   
    54    26    51 1   
    55    26    52 1   
    56    27    28 1   
    57    27    53 1   
    58    27    54 1   
    59    28    29 1   
    60    28    55 1   
    61    28    56 1   
    62    29    57 1   
    63    29    58 1   
@<TRIPOS>SUBSTRUCTURE
     1 8WJ         1 TEMP              0 ****  ****    0 ROOT
