@<TRIPOS>MOLECULE
molecule
   61    65     1     0     0
SMALL
bcc


@<TRIPOS>ATOM
      1 CAJ          0.0000     0.0000     0.0000 ca         1 8WK      -0.096000
      2 CAH          1.3810     0.0000     0.0000 ca         1 8WK      -0.158500
      3 CAZ          2.0750     0.0000     1.1990 ca         1 8WK       0.132900
      4 FAD          3.4260    -0.0000     1.1960 f          1 8WK      -0.137900
      5 CAI          1.3860    -0.0000     2.3990 ca         1 8WK      -0.158500
      6 CAK          0.0040    -0.0010     2.4040 ca         1 8WK      -0.096000
      7 CBB         -0.6920    -0.0010     1.2030 ca         1 8WK       0.010800
      8 NBJ         -2.0940     0.0060     1.2050 na         1 8WK       0.166300
      9 NAW         -2.9130     0.6580     0.2750 nc         1 8WK      -0.492800
     10 CAN         -4.1660     0.4540     0.5790 cd         1 8WK       0.411200
     11 CBD         -4.2180    -0.3500     1.7340 cd         1 8WK      -0.420900
     12 CBC         -5.2950    -0.9110     2.5490 c          1 8WK       0.733100
     13 OAB         -6.4650    -0.7130     2.2720 o          1 8WK      -0.635500
     14 CBE         -2.8930    -0.6250     2.1090 cc         1 8WK       0.226100
     15 NAV         -2.6630    -1.3870     3.1890 nc         1 8WK      -0.668100
     16 CAO         -3.6350    -1.8820     3.9010 cd         1 8WK       0.554800
     17 NBH         -4.9440    -1.6580     3.6210 n          1 8WK      -0.372300
     18 CAU         -5.9820    -2.2500     4.4680 c3         1 8WK       0.065000
     19 CBK         -6.3240    -1.2860     5.6050 c3         1 8WK       0.131800
     20 CAR         -7.4080    -1.9050     6.4910 c3         1 8WK      -0.103900
     21 CAP         -7.7220    -0.9510     7.6480 c3         1 8WK       0.109000
     22 OAC         -5.1530    -1.0390     6.3880 oh         1 8WK      -0.600800
     23 CAS         -6.8320     0.0330     5.0200 c3         1 8WK      -0.103900
     24 CAQ         -7.1410     1.0080     6.1600 c3         1 8WK       0.109000
     25 NBG         -8.0720     0.3640     7.0950 n          1 8WK      -0.492800
     26 CAY         -9.2280     0.9680     7.4380 c          1 8WK       0.659100
     27 OAA         -9.9890     0.4250     8.2100 o          1 8WK      -0.579100
     28 CAT         -9.5720     2.3170     6.8620 c3         1 8WK      -0.179400
     29 CBL        -10.9860     2.7100     7.2960 c3         1 8WK       0.054000
     30 CBF        -11.2920     4.1290     6.8120 c3         1 8WK       0.382900
     31 FAF        -10.4520     5.0360     7.4670 f          1 8WK      -0.234800
     32 FAG        -11.0780     4.2070     5.4320 f          1 8WK      -0.234800
     33 NBI        -11.9540     1.7770     6.7150 na         1 8WK       0.067400
     34 NAX        -12.4770     0.6370     7.3390 nd         1 8WK      -0.484800
     35 CBA        -13.3080     0.0610     6.5080 cc         1 8WK       0.545500
     36 FAE        -14.0110    -1.0690     6.7460 f          1 8WK      -0.204200
     37 CAL        -13.3390     0.8150     5.3290 cc         1 8WK      -0.364300
     38 CAM        -12.5010     1.8650     5.4850 cd         1 8WK      -0.113300
     39 H1          -0.5420     0.0000    -0.9380 ha         1 8WK       0.160000
     40 H2           1.9230     0.0000    -0.9380 ha         1 8WK       0.152500
     41 H3           1.9300    -0.0010     3.3360 ha         1 8WK       0.152500
     42 H4          -0.5350    -0.0020     3.3440 ha         1 8WK       0.160000
     43 H5          -5.0210     0.8370     0.0350 h4         1 8WK       0.067100
     44 H6          -3.3870    -2.4850     4.7660 h5         1 8WK       0.062800
     45 H7          -5.6200    -3.1840     4.8830 h1         1 8WK       0.076200
     46 H8          -6.8690    -2.4380     3.8750 h1         1 8WK       0.076200
     47 H9          -7.0530    -2.8490     6.8880 hc         1 8WK       0.066950
     48 H10         -8.3030    -2.0680     5.9040 hc         1 8WK       0.066950
     49 H11         -6.8520    -0.8560     8.2860 h1         1 8WK       0.064200
     50 H12         -8.5580    -1.3370     8.2190 h1         1 8WK       0.064200
     51 H13         -4.9280    -1.8170     6.8710 ho         1 8WK       0.401000
     52 H14         -6.0710     0.4590     4.3770 hc         1 8WK       0.066950
     53 H15         -7.7340    -0.1500     4.4490 hc         1 8WK       0.066950
     54 H16         -7.5950     1.9050     5.7560 h1         1 8WK       0.064200
     55 H17         -6.2240     1.2610     6.6790 h1         1 8WK       0.064200
     56 H18         -8.8660     3.0550     7.2230 hc         1 8WK       0.084200
     57 H19         -9.5260     2.2710     5.7810 hc         1 8WK       0.084200
     58 H20        -11.0550     2.6750     8.3770 h1         1 8WK       0.124700
     59 H21        -12.3250     4.3710     7.0310 h2         1 8WK       0.087700
     60 H22        -13.9330     0.5980     4.4490 ha         1 8WK       0.167000
     61 H23        -12.3010     2.6370     4.7510 h4         1 8WK       0.188000
@<TRIPOS>BOND
     1     4     3 1   
     2     2     3 ar  
     3     2     1 ar  
     4     3     5 ar  
     5     1     7 ar  
     6     5     6 ar  
     7     6     7 ar  
     8     7     8 1   
     9    15    16 2   
    10    15    14 1   
    11    16    17 1   
    12     8    14 1   
    13     8     9 1   
    14    14    11 2   
    15    17    18 1   
    16    17    12 1   
    17    18    19 1   
    18     9    10 2   
    19    11    12 1   
    20    11    10 1   
    21    12    13 2   
    22    22    19 1   
    23    19    20 1   
    24    19    23 1   
    25    20    21 1   
    26    21    25 1   
    27    23    24 1   
    28    36    35 1   
    29    25    24 1   
    30    25    26 1   
    31    35    37 1   
    32    35    34 2   
    33    37    38 2   
    34    27    26 2   
    35    26    28 1   
    36    34    33 1   
    37    38    33 1   
    38    33    29 1   
    39    28    29 1   
    40    29    30 1   
    41    30    31 1   
    42    30    32 1   
    43     1    39 1   
    44     2    40 1   
    45     5    41 1   
    46     6    42 1   
    47    10    43 1   
    48    16    44 1   
    49    18    45 1   
    50    18    46 1   
    51    20    47 1   
    52    20    48 1   
    53    21    49 1   
    54    21    50 1   
    55    22    51 1   
    56    23    52 1   
    57    23    53 1   
    58    24    54 1   
    59    24    55 1   
    60    28    56 1   
    61    28    57 1   
    62    29    58 1   
    63    30    59 1   
    64    37    60 1   
    65    38    61 1   
@<TRIPOS>SUBSTRUCTURE
     1 8WK         1 TEMP              0 ****  ****    0 ROOT
