@<TRIPOS>MOLECULE
molecule
   55    59     1     0     0
SMALL
bcc


@<TRIPOS>ATOM
      1 C5           0.0000     0.0000     0.0000 cc         1 8WM       0.599300
      2 C7          -0.2460    -0.0050    -2.3600 c          1 8WM       0.629100
      3 C13         -3.6230    -2.8370    -4.6790 c3         1 8WM      -0.115900
      4 C17         -3.9530    -0.3690    -4.5130 c3         1 8WM      -0.115900
      5 C20          1.2880    -0.8340    -6.2030 cc         1 8WM       0.368800
      6 C21          0.6550     0.3640    -6.7460 ca         1 8WM      -0.173900
      7 C22          0.8320     1.1130    -7.9150 ca         1 8WM      -0.217500
      8 C24         -0.9060     2.5990    -7.2090 ca         1 8WM      -0.112000
      9 C26         -0.3220     0.7550    -5.8090 ca         1 8WM      -0.032200
     10 F1           1.4800    -0.0010     3.5310 f          1 8WM      -0.092900
     11 C2           1.0880    -0.0000     2.2380 cc         1 8WM       0.062500
     12 C3           1.8970     0.0000     1.1760 cd         1 8WM       0.359200
     13 N4           1.2980     0.0000     0.0000 nd         1 8WM      -0.661000
     14 N6          -0.8070    -0.0050    -1.1340 ns         1 8WM      -0.533400
     15 O8           0.9580     0.0960    -2.4760 o          1 8WM      -0.489100
     16 C9          -1.1140    -0.1290    -3.5850 c3         1 8WM       0.026000
     17 C11         -1.9210    -1.4260    -3.5090 c3         1 8WM      -0.089400
     18 C12         -2.9120    -1.4800    -4.6740 c3         1 8WM      -0.074700
     19 C14         -4.6680    -2.8510    -5.7990 c3         1 8WM       0.139400
     20 O15         -5.5870    -1.7750    -5.6060 os         1 8WM      -0.419600
     21 C16         -4.9850    -0.4790    -5.6390 c3         1 8WM       0.139400
     22 N18         -0.2690    -0.1510    -4.7820 na         1 8WM       0.068900
     23 N19          0.7210    -1.0990    -5.0600 nd         1 8WM      -0.457100
     24 C23          0.0560     2.2140    -8.1350 ca         1 8WM      -0.053000
     25 C25         -1.0980     1.8840    -6.0610 ca         1 8WM      -0.105000
     26 O28          1.7880    -0.7410    -9.3320 o          1 8WM      -0.619300
     27 O29          1.9220     1.5950   -10.1360 o          1 8WM      -0.619300
     28 C30          3.6280     0.8430    -8.2280 cx         1 8WM      -0.289900
     29 C31          4.9100     0.6210    -9.0310 cx         1 8WM      -0.079400
     30 C32          4.5000     2.0380    -8.6230 cx         1 8WM      -0.079400
     31 S33         -0.5790    -0.0010     1.6640 ss         1 8WM      -0.268300
     32 H1          -4.1140    -2.9910    -3.7260 hc         1 8WM       0.049200
     33 H2          -2.8990    -3.6240    -4.8510 hc         1 8WM       0.049200
     34 H3          -4.4500    -0.4770    -3.5560 hc         1 8WM       0.049200
     35 H4          -3.4630     0.5950    -4.5660 hc         1 8WM       0.049200
     36 H5           2.0850    -1.4010    -6.6670 h4         1 8WM       0.076800
     37 H6          -1.5120     3.4760    -7.4010 ha         1 8WM       0.140000
     38 H7           2.9760     0.0000     1.2740 h4         1 8WM       0.061100
     39 H8          -1.8030    -0.0150    -1.0390 hn         1 8WM       0.336500
     40 H9          -1.7900     0.7150    -3.6360 h1         1 8WM       0.086700
     41 H10         -2.4640    -1.4590    -2.5720 hc         1 8WM       0.065700
     42 H11         -1.2490    -2.2740    -3.5670 hc         1 8WM       0.065700
     43 H12         -2.3840    -1.3470    -5.6110 hc         1 8WM       0.070700
     44 H13         -4.1720    -2.7340    -6.7550 h1         1 8WM       0.050700
     45 H14         -5.2050    -3.7920    -5.7780 h1         1 8WM       0.050700
     46 H15         -5.7480     0.2760    -5.5020 h1         1 8WM       0.050700
     47 H16         -4.4930    -0.3350    -6.5930 h1         1 8WM       0.050700
     48 H17          0.1920     2.7940    -9.0400 ha         1 8WM       0.162000
     49 H18         -1.8520     2.1950    -5.3480 ha         1 8WM       0.128000
     50 H19          3.6930     0.5610    -7.1840 h1         1 8WM       0.131700
     51 H20          4.7700     0.3770   -10.0780 hc         1 8WM       0.089200
     52 H21          5.7410     0.1970    -8.4790 hc         1 8WM       0.089200
     53 H22          4.1080     2.6590    -9.4200 hc         1 8WM       0.089200
     54 H23          5.0790     2.4800    -7.8210 hc         1 8WM       0.089200
     55 S27          2.0490     0.6350    -9.0960 sy         1 8WM       1.228300
@<TRIPOS>BOND
     1    30    29 1   
     2    30    28 1   
     3    29    28 1   
     4    19    20 1   
     5    19     3 1   
     6    28    55 1   
     7    20    21 1   
     8    21     4 1   
     9     3    18 1   
    10    27    55 2   
    11    55    26 2   
    12    55     7 1   
    13    18     4 1   
    14    18    17 1   
    15     5    23 2   
    16     5     6 1   
    17    23    22 1   
    18     7     6 ar  
    19     7    24 ar  
    20     6     9 ar  
    21    17    16 1   
    22    24     8 ar  
    23    22     9 1   
    24    22    16 1   
    25     9    25 ar  
    26    16     2 1   
    27     8    25 ar  
    28     2    15 2   
    29     2    14 1   
    30    14     1 1   
    31     1    31 1   
    32     1    13 2   
    33    31    11 1   
    34    13    12 1   
    35    12    11 2   
    36    11    10 1   
    37     3    32 1   
    38     3    33 1   
    39     4    34 1   
    40     4    35 1   
    41     5    36 1   
    42     8    37 1   
    43    12    38 1   
    44    14    39 1   
    45    16    40 1   
    46    17    41 1   
    47    17    42 1   
    48    18    43 1   
    49    19    44 1   
    50    19    45 1   
    51    21    46 1   
    52    21    47 1   
    53    24    48 1   
    54    25    49 1   
    55    28    50 1   
    56    29    51 1   
    57    29    52 1   
    58    30    53 1   
    59    30    54 1   
@<TRIPOS>SUBSTRUCTURE
     1 8WM         1 TEMP              0 ****  ****    0 ROOT
