@<TRIPOS>MOLECULE
8WM
   55    59     1     0     0
SMALL
bcc


@<TRIPOS>ATOM
      1 C5           0.0000     0.0000     0.0000 cc         1 8WM       0.426300
      2 C7          -0.2460    -0.0050    -2.3600 c          1 8WM       0.524100
      3 C13         -3.6230    -2.8370    -4.6790 c3         1 8WM      -0.068400
      4 C17         -3.9530    -0.3690    -4.5130 c3         1 8WM      -0.068400
      5 C20          1.2880    -0.8340    -6.2030 cc         1 8WM       0.424800
      6 C21          0.6550     0.3640    -6.7460 ca         1 8WM      -0.182900
      7 C22          0.8320     1.1130    -7.9150 ca         1 8WM      -0.058500
      8 C24         -0.9060     2.5990    -7.2090 ca         1 8WM      -0.092000
      9 C26         -0.3220     0.7550    -5.8090 ca         1 8WM      -0.195200
     10 F1           1.4800    -0.0010     3.5310 f          1 8WM      -0.082900
     11 C2           1.0880    -0.0000     2.2380 cc         1 8WM       0.082500
     12 C3           1.8970     0.0000     1.1760 cd         1 8WM       0.350200
     13 N4           1.2980     0.0000     0.0000 nd         1 8WM      -0.534000
     14 N6          -0.8070    -0.0050    -1.1340 ns         1 8WM      -0.072400
     15 O8           0.9580     0.0960    -2.4760 o          1 8WM      -0.534100
     16 C9          -1.1140    -0.1290    -3.5850 c3         1 8WM      -0.099000
     17 C11         -1.9210    -1.4260    -3.5090 c3         1 8WM      -0.040400
     18 C12         -2.9120    -1.4800    -4.6740 c3         1 8WM      -0.055700
     19 C14         -4.6680    -2.8510    -5.7990 c3         1 8WM       0.216400
     20 O15         -5.5870    -1.7750    -5.6060 os         1 8WM      -0.407600
     21 C16         -4.9850    -0.4790    -5.6390 c3         1 8WM       0.216400
     22 N18         -0.2690    -0.1510    -4.7820 na         1 8WM       0.478900
     23 N19          0.7210    -1.0990    -5.0600 nd         1 8WM      -0.582100
     24 C23          0.0560     2.2140    -8.1350 ca         1 8WM      -0.026000
     25 C25         -1.0980     1.8840    -6.0610 ca         1 8WM      -0.075000
     26 O28          1.7880    -0.7410    -9.3320 o          1 8WM      -0.585300
     27 O29          1.9220     1.5950   -10.1360 o          1 8WM      -0.585300
     28 C30          3.6280     0.8430    -8.2280 cx         1 8WM      -0.114900
     29 C31          4.9100     0.6210    -9.0310 cx         1 8WM      -0.017400
     30 C32          4.5000     2.0380    -8.6230 cx         1 8WM      -0.017400
     31 S33         -0.5790    -0.0010     1.6640 ss         1 8WM      -0.329300
     32 H1          -4.1140    -2.9910    -3.7260 hc         1 8WM       0.023950
     33 H2          -2.8990    -3.6240    -4.8510 hc         1 8WM       0.023950
     34 H3          -4.4500    -0.4770    -3.5560 hc         1 8WM       0.023950
     35 H4          -3.4630     0.5950    -4.5660 hc         1 8WM       0.023950
     36 H5           2.0850    -1.4010    -6.6670 h4         1 8WM       0.030800
     37 H6          -1.5120     3.4760    -7.4010 ha         1 8WM       0.107000
     38 H7           2.9760     0.0000     1.2740 h4         1 8WM       0.015100
     39 H8          -1.8030    -0.0150    -1.0390 hn         1 8WM       0.176500
     40 H9          -1.7900     0.7150    -3.6360 h1         1 8WM       0.060700
     41 H10         -2.4640    -1.4590    -2.5720 hc         1 8WM       0.037700
     42 H11         -1.2490    -2.2740    -3.5670 hc         1 8WM       0.037700
     43 H12         -2.3840    -1.3470    -5.6110 hc         1 8WM       0.044700
     44 H13         -4.1720    -2.7340    -6.7550 h1         1 8WM       0.010700
     45 H14         -5.2050    -3.7920    -5.7780 h1         1 8WM       0.010700
     46 H15         -5.7480     0.2760    -5.5020 h1         1 8WM       0.010700
     47 H16         -4.4930    -0.3350    -6.5930 h1         1 8WM       0.010700
     48 H17          0.1920     2.7940    -9.0400 ha         1 8WM       0.135000
     49 H18         -1.8520     2.1950    -5.3480 ha         1 8WM       0.100000
     50 H19          3.6930     0.5610    -7.1840 h1         1 8WM       0.100700
     51 H20          4.7700     0.3770   -10.0780 hc         1 8WM       0.053450
     52 H21          5.7410     0.1970    -8.4790 hc         1 8WM       0.053450
     53 H22          4.1080     2.6590    -9.4200 hc         1 8WM       0.053450
     54 H23          5.0790     2.4800    -7.8210 hc         1 8WM       0.053450
     55 S27          2.0490     0.6350    -9.0960 sy         1 8WM       0.906300
@<TRIPOS>BOND
     1     1    13 2   
     2     1    14 1   
     3     1    31 1   
     4     2    14 1   
     5     2    15 2   
     6     2    16 1   
     7     3    18 1   
     8     3    19 1   
     9     3    32 1   
    10     3    33 1   
    11     4    18 1   
    12     4    21 1   
    13     4    34 1   
    14     4    35 1   
    15     5     6 1   
    16     5    23 2   
    17     5    36 1   
    18     6     7 ar  
    19     6     9 ar  
    20     7    24 ar  
    21     7    55 1   
    22     8    24 ar  
    23     8    25 ar  
    24     8    37 1   
    25     9    22 1   
    26     9    25 ar  
    27    10    11 1   
    28    11    12 2   
    29    11    31 1   
    30    12    13 1   
    31    12    38 1   
    32    14    39 1   
    33    16    17 1   
    34    16    22 1   
    35    16    40 1   
    36    17    18 1   
    37    17    41 1   
    38    17    42 1   
    39    18    43 1   
    40    19    20 1   
    41    19    44 1   
    42    19    45 1   
    43    20    21 1   
    44    21    46 1   
    45    21    47 1   
    46    22    23 1   
    47    24    48 1   
    48    25    49 1   
    49    26    55 2   
    50    27    55 2   
    51    28    29 1   
    52    28    30 1   
    53    28    50 1   
    54    28    55 1   
    55    29    30 1   
    56    29    51 1   
    57    29    52 1   
    58    30    53 1   
    59    30    54 1   
@<TRIPOS>SUBSTRUCTURE
     1 8WM         1 TEMP              0 ****  ****    0 ROOT
