@<TRIPOS>MOLECULE
8WN
   69    73     1     0     0
SMALL
bcc


@<TRIPOS>ATOM
      1 OAD          0.0000     0.0000     0.0000 o          1 8WN      -0.673500
      2 CBF          1.2180     0.0000     0.0000 c          1 8WN       0.675100
      3 CBG          1.9770     0.0000     1.2500 cc         1 8WN      -0.442900
      4 CAP          1.6340     0.0020     2.6150 cc         1 8WN       0.485200
      5 NAY          2.7350     0.0020     3.3150 nd         1 8WN      -0.648800
      6 NBJ          3.8380     0.0010     2.4510 na         1 8WN       0.519400
      7 CAB          5.2450     0.0000     2.8580 c3         1 8WN       0.020600
      8 CBH          3.3790    -0.0010     1.1730 cd         1 8WN       0.004100
      9 NAX          3.9680    -0.0010    -0.0330 nd         1 8WN      -0.538100
     10 CAQ          3.2770    -0.0020    -1.1350 cc         1 8WN       0.353800
     11 NBK          1.9200    -0.0060    -1.1570 n          1 8WN       0.033700
     12 CAW          1.2110    -0.0130    -2.4400 c3         1 8WN      -0.004000
     13 CBL          0.9660     1.4270    -2.8940 c3         1 8WN       0.147800
     14 CAV          0.2250     1.4190    -4.2330 c3         1 8WN      -0.062900
     15 CAT         -0.0500     2.8620    -4.6680 c3         1 8WN       0.035500
     16 OAG          0.1740     2.1050    -1.9160 oh         1 8WN      -0.576800
     17 CAU          2.3060     2.1470    -3.0550 c3         1 8WN      -0.062900
     18 CAS          2.0540     3.5980    -3.4760 c3         1 8WN       0.035500
     19 NBI          1.2190     3.6020    -4.6840 n          1 8WN      -0.145800
     20 CBA          1.6100     4.2700    -5.7870 c          1 8WN       0.612700
     21 OAC          0.9520     4.1980    -6.8080 o          1 8WN      -0.647100
     22 CBB          2.8370     5.0910    -5.7570 ca         1 8WN      -0.155600
     23 CAL          3.6560     5.1660    -6.8860 ca         1 8WN      -0.062500
     24 CAO          4.8000     5.9310    -6.8570 ca         1 8WN      -0.115000
     25 CAK          3.1760     5.7980    -4.6010 ca         1 8WN      -0.062500
     26 CAN          4.3200     6.5630    -4.5730 ca         1 8WN      -0.115000
     27 CBC          5.1410     6.6320    -5.7000 cp         1 8WN       0.000000
     28 CBE          6.3720     7.4560    -5.6690 cp         1 8WN      -0.089000
     29 CAM          7.5870     6.9150    -6.0870 ca         1 8WN      -0.066000
     30 CAI          8.7310     7.6860    -6.0560 ca         1 8WN      -0.128000
     31 CAH          8.6780     8.9970    -5.6120 ca         1 8WN      -0.062000
     32 CAJ          7.4800     9.5440    -5.1950 ca         1 8WN      -0.184000
     33 CBD          6.3200     8.7830    -5.2260 ca         1 8WN       0.084600
     34 NAZ          5.1110     9.3340    -4.8060 nu         1 8WN      -0.421500
     35 SBM          4.7820    10.9310    -5.1000 s6         1 8WN       0.952900
     36 OAE          3.4550    11.1080    -4.6260 o          1 8WN      -0.582800
     37 OAF          5.8700    11.6270    -4.5100 o          1 8WN      -0.582800
     38 CAR          4.8370    11.0790    -6.9080 c3         1 8WN      -0.007600
     39 CAA          4.5460    12.5260    -7.3100 c3         1 8WN       0.039900
     40 H1           0.6280     0.0030     3.0160 h4         1 8WN       0.014100
     41 H2           5.7340     0.8860     2.4700 h1         1 8WN       0.025367
     42 H3           5.3080    -0.0020     3.9400 h1         1 8WN       0.025367
     43 H4           5.7340    -0.8830     2.4660 h1         1 8WN       0.025367
     44 H5           3.8090    -0.0080    -2.0780 h5         1 8WN       0.008800
     45 H6           0.2620    -0.5220    -2.3250 h1         1 8WN       0.048200
     46 H7           1.8100    -0.5280    -3.1810 h1         1 8WN       0.048200
     47 H8           0.8360     0.9280    -4.9800 hc         1 8WN       0.031450
     48 H9          -0.7150     0.8910    -4.1220 hc         1 8WN       0.031450
     49 H10         -0.4830     2.8650    -5.6610 h1         1 8WN       0.046200
     50 H11         -0.7320     3.3280    -3.9670 h1         1 8WN       0.046200
     51 H12         -0.7210     1.8170    -1.9820 ho         1 8WN       0.412000
     52 H13          2.8940     1.6480    -3.8160 hc         1 8WN       0.031450
     53 H14          2.8380     2.1330    -2.1120 hc         1 8WN       0.031450
     54 H15          2.9990     4.0830    -3.6880 h1         1 8WN       0.046200
     55 H16          1.5410     4.1230    -2.6800 h1         1 8WN       0.046200
     56 H17          3.3920     4.6220    -7.7850 ha         1 8WN       0.123500
     57 H18          5.4360     5.9870    -7.7320 ha         1 8WN       0.115500
     58 H19          2.5390     5.7450    -3.7260 ha         1 8WN       0.123500
     59 H20          4.5850     7.1100    -3.6760 ha         1 8WN       0.115500
     60 H21          7.6330     5.8910    -6.4350 ha         1 8WN       0.107000
     61 H22          9.6740     7.2640    -6.3810 ha         1 8WN       0.105000
     62 H23          9.5810     9.5950    -5.5890 ha         1 8WN       0.105000
     63 H24          7.4450    10.5710    -4.8510 ha         1 8WN       0.177000
     64 H25          4.4640     8.7790    -4.2820 hn         1 8WN       0.366800
     65 H26          4.0930    10.4260    -7.3460 h1         1 8WN       0.070200
     66 H27          5.8210    10.7970    -7.2630 h1         1 8WN       0.070200
     67 H28          5.2680    13.1830    -6.8410 hc         1 8WN       0.013700
     68 H29          3.5480    12.7960    -6.9870 hc         1 8WN       0.013700
     69 H30          4.6160    12.6220    -8.3870 hc         1 8WN       0.013700
@<TRIPOS>BOND
     1     1     2 2   
     2     2     3 1   
     3     2    11 1   
     4     3     4 1   
     5     3     8 2   
     6     4     5 2   
     7     4    40 1   
     8     5     6 1   
     9     6     7 1   
    10     6     8 1   
    11     7    41 1   
    12     7    42 1   
    13     7    43 1   
    14     8     9 1   
    15     9    10 2   
    16    10    11 1   
    17    10    44 1   
    18    11    12 1   
    19    12    13 1   
    20    12    45 1   
    21    12    46 1   
    22    13    14 1   
    23    13    16 1   
    24    13    17 1   
    25    14    15 1   
    26    14    47 1   
    27    14    48 1   
    28    15    19 1   
    29    15    49 1   
    30    15    50 1   
    31    16    51 1   
    32    17    18 1   
    33    17    52 1   
    34    17    53 1   
    35    18    19 1   
    36    18    54 1   
    37    18    55 1   
    38    19    20 1   
    39    20    21 2   
    40    20    22 1   
    41    22    23 ar  
    42    22    25 ar  
    43    23    24 ar  
    44    23    56 1   
    45    24    27 ar  
    46    24    57 1   
    47    25    26 ar  
    48    25    58 1   
    49    26    27 ar  
    50    26    59 1   
    51    27    28 1   
    52    28    29 ar  
    53    28    33 ar  
    54    29    30 ar  
    55    29    60 1   
    56    30    31 ar  
    57    30    61 1   
    58    31    32 ar  
    59    31    62 1   
    60    32    33 ar  
    61    32    63 1   
    62    33    34 1   
    63    34    35 1   
    64    34    64 1   
    65    35    36 2   
    66    35    37 2   
    67    35    38 1   
    68    38    39 1   
    69    38    65 1   
    70    38    66 1   
    71    39    67 1   
    72    39    68 1   
    73    39    69 1   
@<TRIPOS>SUBSTRUCTURE
     1 8WN         1 TEMP              0 ****  ****    0 ROOT
