@<TRIPOS>MOLECULE
8WO
   25    25     1     0     0
SMALL
bcc


@<TRIPOS>ATOM
      1 C4           0.0000     0.0000     0.0000 ce         1 8WO       0.238000
      2 C5           1.3970     0.0000     0.0000 ce         1 8WO      -0.416000
      3 C2           0.0380     0.4580     2.4470 c3         1 8WO       0.287000
      4 C3          -0.6960     0.1680     1.1610 cf         1 8WO      -0.509400
      5 C1           2.0850     0.0000     1.1790 c2         1 8WO       0.348100
      6 C6          -2.0980     0.0720     1.1590 c          1 8WO       0.367300
      7 C7           4.0860     0.0740    -0.0890 c3         1 8WO       0.254700
      8 N1           1.3960    -0.0970     2.3630 nh         1 8WO      -0.314400
      9 N2          -2.7870     0.2390     2.3060 nz         1 8WO       0.208600
     10 O1          -2.6910    -0.1610     0.1210 o          1 8WO      -0.520100
     11 O2           3.4320     0.0950     1.1810 os         1 8WO      -0.284900
     12 H1          -0.5360    -0.1340    -0.9320 ha         1 8WO       0.128000
     13 H2           1.9360     0.0000    -0.9400 ha         1 8WO       0.164000
     14 H3          -0.4890    -0.0020     3.2750 h1         1 8WO       0.004700
     15 H4           2.7670    -0.0900     3.9430 h1         1 8WO       0.026700
     16 H5           2.4590    -1.6780     3.2270 h1         1 8WO       0.026700
     17 H6           1.2460    -0.9300     4.2760 h1         1 8WO       0.026700
     18 H7           3.7790     0.9370    -0.6680 h1         1 8WO       0.017700
     19 H8           3.8160    -0.8310    -0.6200 h1         1 8WO       0.017700
     20 H9           5.1590     0.1000     0.0560 h1         1 8WO       0.017700
     21 H10         -3.7680     0.2230     2.1110 hn         1 8WO       0.235467
     22 H11         -2.5420     1.1180     2.7170 hn         1 8WO       0.235467
     23 H12          0.0950     1.5290     2.5960 h1         1 8WO       0.004700
     24 C8           2.0070    -0.7410     3.5280 c3         1 8WO       0.198100
     25 H23         -2.5410    -0.4850     2.9520 hn         1 8WO       0.235467
@<TRIPOS>BOND
     1     1     2 1   
     2     1     4 2   
     3     1    12 1   
     4     2     5 2   
     5     2    13 1   
     6     3     4 1   
     7     3     8 1   
     8     3    14 1   
     9     3    23 1   
    10     4     6 1   
    11     5     8 1   
    12     5    11 1   
    13     6     9 1   
    14     6    10 2   
    15     7    11 1   
    16     7    18 1   
    17     7    19 1   
    18     7    20 1   
    19     8    24 1   
    20     9    21 1   
    21     9    22 1   
    22     9    25 1   
    23    15    24 1   
    24    16    24 1   
    25    17    24 1   
@<TRIPOS>SUBSTRUCTURE
     1 8WO         1 TEMP              0 ****  ****    0 ROOT
