@<TRIPOS>MOLECULE
molecule
   21    21     1     0     0
SMALL
bcc


@<TRIPOS>ATOM
      1 C3           0.0000     0.0000     0.0000 c3         1 8WQ       0.104800
      2 C2           0.6350     0.5550     2.2080 c3         1 8WQ       0.050500
      3 C1           1.8940     0.0000     1.5070 c3         1 8WQ      -0.153700
      4 C7           1.5490     0.0000     0.0000 c3         1 8WQ       0.157100
      5 C5           2.1780    -1.4020     1.9780 c          1 8WQ       0.515100
      6 C4           0.9840     1.8020     2.9800 c          1 8WQ       0.902600
      7 O1           1.5590     1.7040     4.1890 o          1 8WQ      -0.854300
      8 O2           0.7480     2.8890     2.5090 o          1 8WQ      -0.854300
      9 N1          -0.3450     0.8750     1.1490 n7         1 8WQ      -0.768200
     10 O3           1.2770    -2.1000     2.3750 o          1 8WQ      -0.568100
     11 O4           3.8280    -3.1800     2.3780 o          1 8WQ      -0.840300
     12 O5           4.4790    -1.2270     1.5580 o          1 8WQ      -0.840300
     13 O6           2.0550    -1.1750    -0.6340 oh         1 8WQ      -0.586800
     14 H4          -0.3800     0.4190    -0.9240 h1         1 8WQ       0.016700
     15 H3          -0.3800    -1.0020     0.1580 h1         1 8WQ       0.016700
     16 H2           0.2250    -0.1950     2.8740 h1         1 8WQ       0.049700
     17 H1           2.7430     0.6460     1.6970 hc         1 8WQ       0.106700
     18 H7           1.9300     0.8950    -0.4770 h1         1 8WQ       0.036700
     19 H5          -1.2670     0.6560     1.4710 hn         1 8WQ       0.316800
     20 H8           2.2580    -0.9840    -1.5350 ho         1 8WQ       0.369000
     21 C6           3.5740    -1.9270     1.9560 c          1 8WQ       0.823600
@<TRIPOS>BOND
     1    12    21 1   
     2    10     5 2   
     3    21     5 1   
     4    21    11 1   
     5     5     3 1   
     6    13     4 1   
     7     3     4 1   
     8     3     2 1   
     9     4     1 1   
    10     9     1 1   
    11     9     2 1   
    12     2     6 1   
    13     6     8 1   
    14     6     7 1   
    15     1    14 1   
    16     1    15 1   
    17     2    16 1   
    18     3    17 1   
    19     4    18 1   
    20     9    19 1   
    21    13    20 1   
@<TRIPOS>SUBSTRUCTURE
     1 8WQ         1 TEMP              0 ****  ****    0 ROOT
