@<TRIPOS>MOLECULE
8WR
   57    60     1     0     0
SMALL
bcc


@<TRIPOS>ATOM
      1 CAA          0.0000     0.0000     0.0000 c3         1 8WR       0.001900
      2 CAB          2.0410     0.0000     1.4430 c3         1 8WR       0.001900
      3 CAC          2.0400    -1.2500    -0.7210 c3         1 8WR       0.001900
      4 CAJ         -1.5880    10.6700     3.3870 ca         1 8WR      -0.108000
      5 CAK          3.0440     2.4880    -2.1480 cc         1 8WR       0.233400
      6 CAL         -0.4400    10.1520     2.8230 ca         1 8WR      -0.055000
      7 CAM         -2.7500     9.9240     3.4130 ca         1 8WR      -0.081000
      8 CAN         -7.3730     8.0530     4.5690 ca         1 8WR      -0.114000
      9 CAO         -5.7590     9.1790     5.9430 ca         1 8WR      -0.114000
     10 CAP         -6.3910     7.7520     3.6490 ca         1 8WR      -0.061500
     11 CAQ         -4.7640     8.8760     5.0360 ca         1 8WR      -0.061500
     12 CAR         -1.6210     8.1100     2.2850 ca         1 8WR      -0.074000
     13 CAW         -4.0170     7.8410     2.8970 c          1 8WR       0.647300
     14 CAX         -7.0590     8.7650     5.7130 ca         1 8WR      -0.071000
     15 CAY         -0.4480     8.8660     2.2680 ca         1 8WR      -0.083800
     16 CAZ          1.7800     2.5390    -0.3530 cc         1 8WR      -0.425400
     17 NAS          2.4370     3.3240    -1.2810 na         1 8WR       0.224100
     18 NAT          2.7970     1.2510    -1.8040 nd         1 8WR      -0.606000
     19 NAU          0.1440     6.1330     2.3970 ns         1 8WR      -0.052100
     20 NAV          2.1750     5.0740     0.7200 ns         1 8WR      -0.054100
     21 OAD         -4.1710     6.9240     2.1150 o          1 8WR      -0.551100
     22 CBA         -5.0750     8.1610     3.8770 ca         1 8WR      -0.178600
     23 CBB         -2.7730     8.6370     2.8670 ca         1 8WR      -0.162600
     24 CBC          2.0330     1.2300    -0.7110 cd         1 8WR       0.363600
     25 CBD          2.1320     6.4060     0.9410 c          1 8WR       0.627700
     26 CBE          0.1920     4.8030     2.1790 c          1 8WR       0.633700
     27 CBF          0.9960     6.9790     1.6800 cc         1 8WR      -0.202600
     28 CBG          1.1370     4.2650     1.1950 cd         1 8WR      -0.267600
     29 CBH          1.5310     0.0000     0.0000 c3         1 8WR      -0.080300
     30 H1          -0.3610     0.5920    -0.8330 hc         1 8WR       0.010033
     31 H2          -0.3610    -1.0170    -0.0960 hc         1 8WR       0.010033
     32 H3          -0.3610     0.4250     0.9290 hc         1 8WR       0.010033
     33 H4           3.0490     0.3940     1.4690 hc         1 8WR       0.010033
     34 H5           2.0390    -1.0130     1.8260 hc         1 8WR       0.010033
     35 H6           1.3950     0.6190     2.0540 hc         1 8WR       0.010033
     36 H7           1.6860    -2.1340    -0.2040 hc         1 8WR       0.010033
     37 H8           1.6720    -1.2550    -1.7390 hc         1 8WR       0.010033
     38 H9           3.1240    -1.2460    -0.7280 hc         1 8WR       0.010033
     39 H10          1.4410     8.9650     1.1090 ha         1 8WR       0.141000
     40 H12          0.2800     2.3260     1.2030 ha         1 8WR       0.158000
     41 H14         -1.5770    11.6650     3.8140 ha         1 8WR       0.109000
     42 H15          3.6420     2.7950    -2.9970 h5         1 8WR       0.025100
     43 H16          0.4680    10.7430     2.8070 ha         1 8WR       0.111000
     44 H17         -3.6460    10.3360     3.8610 ha         1 8WR       0.130000
     45 H19         -5.5200     9.7350     6.8420 ha         1 8WR       0.107000
     46 H20         -6.6380     7.1950     2.7530 ha         1 8WR       0.122000
     47 H21         -3.7460     9.1990     5.2190 ha         1 8WR       0.122000
     48 H22         -1.6320     7.1140     1.8610 ha         1 8WR       0.139000
     49 H23         -7.8360     9.0020     6.4300 ha         1 8WR       0.103000
     50 H24          2.4580     4.3240    -1.3050 hn         1 8WR       0.140700
     51 H11         -0.4950     6.5110     3.0680 hn         1 8WR       0.212500
     52 H13          2.9430     4.6700     0.2210 hn         1 8WR       0.188500
     53 CAI          1.0070     2.9870     0.7480 ce         1 8WR       0.028800
     54 CAH          0.7770     8.3150     1.6670 cf         1 8WR      -0.054200
     55 OAE          3.0240     7.1260     0.5330 o          1 8WR      -0.660500
     56 OAF         -0.5450     4.0530     2.7940 o          1 8WR      -0.652500
     57 H18         -8.3930     7.7330     4.3940 ha         1 8WR       0.107000
@<TRIPOS>BOND
     1     1    29 1   
     2     1    30 1   
     3     1    31 1   
     4     1    32 1   
     5     2    29 1   
     6     2    33 1   
     7     2    34 1   
     8     2    35 1   
     9     3    29 1   
    10     3    36 1   
    11     3    37 1   
    12     3    38 1   
    13     4     6 ar  
    14     4     7 ar  
    15     4    41 1   
    16     5    17 1   
    17     5    18 2   
    18     5    42 1   
    19     6    15 ar  
    20     6    43 1   
    21     7    23 ar  
    22     7    44 1   
    23     8    10 ar  
    24     8    14 ar  
    25     8    57 1   
    26     9    11 ar  
    27     9    14 ar  
    28     9    45 1   
    29    10    22 ar  
    30    10    46 1   
    31    11    22 ar  
    32    11    47 1   
    33    12    15 ar  
    34    12    23 ar  
    35    12    48 1   
    36    13    21 2   
    37    13    22 1   
    38    13    23 1   
    39    14    49 1   
    40    15    54 1   
    41    16    17 1   
    42    16    24 2   
    43    16    53 1   
    44    17    50 1   
    45    18    24 1   
    46    19    26 1   
    47    19    27 1   
    48    19    51 1   
    49    20    25 1   
    50    20    28 1   
    51    20    52 1   
    52    24    29 1   
    53    25    27 1   
    54    25    55 2   
    55    26    28 1   
    56    26    56 2   
    57    27    54 2   
    58    28    53 2   
    59    39    54 1   
    60    40    53 1   
@<TRIPOS>SUBSTRUCTURE
     1 8WR         1 TEMP              0 ****  ****    0 ROOT
