@<TRIPOS>MOLECULE
molecule
   57    60     1     0     0
SMALL
bcc


@<TRIPOS>ATOM
      1 CAA          0.0000     0.0000     0.0000 c3         1 8WR      -0.081433
      2 CAB          2.0410     0.0000     1.4430 c3         1 8WR      -0.081433
      3 CAC          2.0400    -1.2500    -0.7210 c3         1 8WR      -0.081433
      4 CAJ         -1.5880    10.6700     3.3870 ca         1 8WR      -0.139000
      5 CAK          3.0440     2.4880    -2.1480 cc         1 8WR       0.418400
      6 CAL         -0.4400    10.1520     2.8230 ca         1 8WR      -0.085000
      7 CAM         -2.7500     9.9240     3.4130 ca         1 8WR      -0.096000
      8 CAN         -7.3730     8.0530     4.5690 ca         1 8WR      -0.141000
      9 CAO         -5.7590     9.1790     5.9430 ca         1 8WR      -0.141000
     10 CAP         -6.3910     7.7520     3.6490 ca         1 8WR      -0.086000
     11 CAQ         -4.7640     8.8760     5.0360 ca         1 8WR      -0.086000
     12 CAR         -1.6210     8.1100     2.2850 ca         1 8WR      -0.092000
     13 CAW         -4.0170     7.8410     2.8970 c          1 8WR       0.588300
     14 CAX         -7.0590     8.7650     5.7130 ca         1 8WR      -0.100000
     15 CAY         -0.4480     8.8660     2.2680 ca         1 8WR      -0.081800
     16 CAZ          1.7800     2.5390    -0.3530 cd         1 8WR      -0.238400
     17 NAS          2.4370     3.3240    -1.2810 na         1 8WR      -0.306900
     18 NAT          2.7970     1.2510    -1.8040 nd         1 8WR      -0.695000
     19 NAU          0.1440     6.1330     2.3970 ns         1 8WR      -0.477100
     20 NAV          2.1750     5.0740     0.7200 ns         1 8WR      -0.483100
     21 OAD         -4.1710     6.9240     2.1150 o          1 8WR      -0.517100
     22 CBA         -5.0750     8.1610     3.8770 ca         1 8WR      -0.170600
     23 CBB         -2.7730     8.6370     2.8670 ca         1 8WR      -0.161600
     24 CBC          2.0330     1.2300    -0.7110 cc         1 8WR       0.386600
     25 CBD          2.1320     6.4060     0.9410 c          1 8WR       0.711700
     26 CBE          0.1920     4.8030     2.1790 c          1 8WR       0.715700
     27 CBF          0.9960     6.9790     1.6800 cd         1 8WR      -0.045600
     28 CBG          1.1370     4.2650     1.1950 cc         1 8WR      -0.091600
     29 CBH          1.5310     0.0000     0.0000 c3         1 8WR      -0.086300
     30 H1          -0.3610     0.5920    -0.8330 hc         1 8WR       0.040478
     31 H2          -0.3610     0.4250     0.9290 hc         1 8WR       0.040478
     32 H3          -0.3610    -1.0170    -0.0960 hc         1 8WR       0.040478
     33 H4           1.4160     0.6470     2.0470 hc         1 8WR       0.040478
     34 H5           2.0050    -1.0080     1.8380 hc         1 8WR       0.040478
     35 H6           3.0620     0.3610     1.4650 hc         1 8WR       0.040478
     36 H7           1.6860    -2.1340    -0.2040 hc         1 8WR       0.040478
     37 H8           1.6710    -1.2550    -1.7390 hc         1 8WR       0.040478
     38 H9           3.1240    -1.2460    -0.7290 hc         1 8WR       0.040478
     39 H10          1.4410     8.9650     1.1090 ha         1 8WR       0.172000
     40 H12          0.2010     2.3670     1.1220 ha         1 8WR       0.187000
     41 H14         -1.5770    11.6650     3.8140 ha         1 8WR       0.139000
     42 H15          3.6420     2.7950    -2.9970 h5         1 8WR       0.069100
     43 H16          0.4680    10.7430     2.8070 ha         1 8WR       0.141000
     44 H17         -3.6460    10.3360     3.8610 ha         1 8WR       0.150000
     45 H19         -5.5200     9.7350     6.8420 ha         1 8WR       0.135500
     46 H20         -6.6380     7.1950     2.7530 ha         1 8WR       0.147500
     47 H21         -3.7460     9.1990     5.2190 ha         1 8WR       0.147500
     48 H22         -1.6320     7.1140     1.8610 ha         1 8WR       0.167000
     49 H23         -7.8360     9.0020     6.4300 ha         1 8WR       0.133000
     50 H24          2.4580     4.3240    -1.3050 hn         1 8WR       0.309700
     51 H11         -0.4950     6.5120     3.0680 hn         1 8WR       0.359500
     52 H13          2.9430     4.6700     0.2200 hn         1 8WR       0.345500
     53 CAI          1.0070     2.9870     0.7480 cf         1 8WR      -0.032200
     54 CAH          0.7770     8.3150     1.6670 ce         1 8WR      -0.097200
     55 OAE          3.0240     7.1260     0.5330 o          1 8WR      -0.618500
     56 OAF         -0.5450     4.0530     2.7940 o          1 8WR      -0.610500
     57 H18         -8.3930     7.7330     4.3940 ha         1 8WR       0.135500
@<TRIPOS>BOND
     1    14     9 ar
     2    14     8 ar
     3     9    11 ar
     4     8    10 ar
     5    11    22 ar
     6    10    22 ar
     7    22    13 1
     8    13    21 2
     9    13    23 1
    10     7    23 ar
    11     7     4 ar
    12    23    12 ar
    13     4     6 ar
    14    12    15 ar
    15     6    15 ar
    16    15    54 1
    17    54    27 2
    18    19    27 1
    19    19    26 1
    20    27    25 1
    21    56    26 2
    22    26    28 1
    23    25    55 2
    24    25    20 1
    25    28    20 1
    26    28    53 2
    27    53    16 1
    28    16    17 1
    29    16    24 2
    30     2    29 1
    31    17     5 1
    32     1    29 1
    33    24    29 1
    34    24    18 1
    35    29     3 1
    36     5    18 2
    37     1    30 1
    38     1    31 1
    39     1    32 1
    40     2    33 1
    41     2    34 1
    42     2    35 1
    43     3    36 1
    44     3    37 1
    45     3    38 1
    46    54    39 1
    47    53    40 1
    48     4    41 1
    49     5    42 1
    50     6    43 1
    51     7    44 1
    52     8    57 1
    53     9    45 1
    54    10    46 1
    55    11    47 1
    56    12    48 1
    57    14    49 1
    58    17    50 1
    59    19    51 1
    60    20    52 1
@<TRIPOS>SUBSTRUCTURE
     1 8WR         1 TEMP              0 ****  ****    0 ROOT
