@<TRIPOS>MOLECULE
8WS
   38    37     1     0     0
SMALL
bcc


@<TRIPOS>ATOM
      1 C1           0.0000     0.0000     0.0000 c3         1 8WS      -0.066100
      2 N1           2.1810     0.0000     1.1680 ns         1 8WS      -0.191900
      3 O1           2.1130     0.0010    -1.0500 o          1 8WS      -0.613100
      4 C01          5.8950     2.8610    -0.0210 c3         1 8WS       0.088300
      5 C02          4.1480     1.2310     0.4580 c          1 8WS       0.549100
      6 N02          4.3460    -6.1860     0.6120 ns         1 8WS      -0.204900
      7 O02          3.4850    -7.5170     2.1630 o          1 8WS      -0.649100
      8 C03          3.6460     0.0000     1.1680 c3         1 8WS      -0.030300
      9 C04          4.1560    -1.2490     0.4460 c3         1 8WS      -0.061400
     10 C05          3.7510    -2.4950     1.2350 c3         1 8WS      -0.020400
     11 C06          4.2620    -3.7440     0.5140 c3         1 8WS      -0.041400
     12 C07          3.8570    -4.9910     1.3030 c3         1 8WS       0.050000
     13 C08          4.1060    -7.4080     1.1270 c          1 8WS       0.569100
     14 C09          4.6080    -8.6380     0.4160 c3         1 8WS      -0.067100
     15 C10          1.5070     0.0000     0.0000 c          1 8WS       0.580100
     16 H1          -0.3610     0.1240    -1.0140 hc         1 8WS       0.021700
     17 H1A         -0.3610     0.8160     0.6150 hc         1 8WS       0.021700
     18 H1B         -0.3610    -0.9400     0.3990 hc         1 8WS       0.021700
     19 HN1          1.6810     0.0470     2.0340 hn         1 8WS       0.170500
     20 H01          5.8710     2.6960    -1.0910 h1         1 8WS       0.009700
     21 H01A         5.2670     3.7090     0.2280 h1         1 8WS       0.009700
     22 H01B         6.9130     3.0620     0.2910 h1         1 8WS       0.009700
     23 HN01         5.9930     1.1940     1.3300 hn         1 8WS       0.167500
     24 HN02         4.8610    -6.0960    -0.2420 hn         1 8WS       0.174500
     25 H03          4.0070    -0.0000     2.1890 h1         1 8WS       0.029700
     26 H04          5.2350    -1.2050     0.3680 hc         1 8WS       0.046200
     27 H04A         3.7240    -1.2940    -0.5470 hc         1 8WS       0.046200
     28 H05          2.6720    -2.5390     1.3120 hc         1 8WS       0.015700
     29 H05A         4.1830    -2.4490     2.2280 hc         1 8WS       0.015700
     30 H06          5.3420    -3.7000     0.4370 hc         1 8WS       0.019700
     31 H06A         3.8310    -3.7890    -0.4790 hc         1 8WS       0.019700
     32 H07          4.2880    -4.9460     2.2960 h1         1 8WS       0.025700
     33 H07A         2.7770    -5.0350     1.3800 h1         1 8WS       0.025700
     34 H09          4.3200    -9.5210     0.9740 hc         1 8WS       0.022033
     35 H09A         5.6880    -8.5960     0.3410 hc         1 8WS       0.022033
     36 H09B         4.1780    -8.6830    -0.5770 hc         1 8WS       0.022033
     37 N01          5.4070     1.6650     0.6700 ns         1 8WS      -0.203900
     38 O01          3.4190     1.8320    -0.3030 o          1 8WS      -0.603100
@<TRIPOS>BOND
     1     1    15 1   
     2     1    16 1   
     3     1    17 1   
     4     1    18 1   
     5     2     8 1   
     6     2    15 1   
     7     2    19 1   
     8     3    15 2   
     9     4    20 1   
    10     4    21 1   
    11     4    22 1   
    12     4    37 1   
    13     5     8 1   
    14     5    37 1   
    15     5    38 2   
    16     6    12 1   
    17     6    13 1   
    18     6    24 1   
    19     7    13 2   
    20     8     9 1   
    21     8    25 1   
    22     9    10 1   
    23     9    26 1   
    24     9    27 1   
    25    10    11 1   
    26    10    28 1   
    27    10    29 1   
    28    11    12 1   
    29    11    30 1   
    30    11    31 1   
    31    12    32 1   
    32    12    33 1   
    33    13    14 1   
    34    14    34 1   
    35    14    35 1   
    36    14    36 1   
    37    23    37 1   
@<TRIPOS>SUBSTRUCTURE
     1 8WS         1 TEMP              0 ****  ****    0 ROOT
