@<TRIPOS>MOLECULE
molecule
   38    37     1     0     0
SMALL
bcc


@<TRIPOS>ATOM
      1 C1           0.0000     0.0000     0.0000 c3         1 8WS      -0.168100
      2 N1           2.1810     0.0000     1.1680 ns         1 8WS      -0.582900
      3 O1           2.1130     0.0010    -1.0500 o          1 8WS      -0.580100
      4 C01          5.8950     2.8610    -0.0210 c3         1 8WS       0.105300
      5 C02          4.1480     1.2310     0.4580 c          1 8WS       0.639100
      6 N02          4.3460    -6.1860     0.6120 ns         1 8WS      -0.590900
      7 O02          3.4850    -7.5170     2.1630 o          1 8WS      -0.610100
      8 C03          3.6460     0.0000     1.1680 c3         1 8WS       0.054700
      9 C04          4.1560    -1.2490     0.4460 c3         1 8WS      -0.098400
     10 C05          3.7510    -2.4950     1.2350 c3         1 8WS      -0.075400
     11 C06          4.2620    -3.7440     0.5140 c3         1 8WS      -0.100400
     12 C07          3.8570    -4.9910     1.3030 c3         1 8WS       0.112000
     13 C08          4.1060    -7.4080     1.1270 c          1 8WS       0.655100
     14 C09          4.6080    -8.6380     0.4160 c3         1 8WS      -0.172100
     15 C10          1.5070     0.0000     0.0000 c          1 8WS       0.665100
     16 H1          -0.3610     0.1240    -1.0140 hc         1 8WS       0.060033
     17 H1A         -0.3610     0.8160     0.6150 hc         1 8WS       0.060033
     18 H1B         -0.3610    -0.9400     0.3990 hc         1 8WS       0.060033
     19 HN1          1.6810     0.0470     2.0340 hn         1 8WS       0.315500
     20 H01          5.8710     2.6960    -1.0910 h1         1 8WS       0.041367
     21 H01A         5.2670     3.7090     0.2280 h1         1 8WS       0.041367
     22 H01B         6.9130     3.0620     0.2910 h1         1 8WS       0.041367
     23 HN01         5.9930     1.1940     1.3300 hn         1 8WS       0.307500
     24 HN02         4.8610    -6.0960    -0.2420 hn         1 8WS       0.312500
     25 H03          4.0070    -0.0000     2.1890 h1         1 8WS       0.058700
     26 H04          5.2350    -1.2050     0.3680 hc         1 8WS       0.071200
     27 H04A         3.7240    -1.2940    -0.5470 hc         1 8WS       0.071200
     28 H05          2.6720    -2.5390     1.3120 hc         1 8WS       0.044200
     29 H05A         4.1830    -2.4490     2.2280 hc         1 8WS       0.044200
     30 H06          5.3420    -3.7000     0.4370 hc         1 8WS       0.048200
     31 H06A         3.8310    -3.7890    -0.4790 hc         1 8WS       0.048200
     32 H07          4.2880    -4.9460     2.2960 h1         1 8WS       0.052700
     33 H07A         2.7770    -5.0350     1.3800 h1         1 8WS       0.052700
     34 H09          4.3200    -9.5210     0.9740 hc         1 8WS       0.060033
     35 H09A         5.6880    -8.5960     0.3410 hc         1 8WS       0.060033
     36 H09B         4.1780    -8.6830    -0.5770 hc         1 8WS       0.060033
     37 N01          5.4070     1.6650     0.6700 ns         1 8WS      -0.595900
     38 O01          3.4190     1.8320    -0.3030 o          1 8WS      -0.567100
@<TRIPOS>BOND
     1     1    15 1
     2     2     8 1
     3     2    15 1
     4     3    15 2
     5     4    37 1
     6    37     5 1
     7    38     5 2
     8     5     8 1
     9     6    12 1
    10     6    13 1
    11     7    13 2
    12     8     9 1
    13     9    10 1
    14    10    11 1
    15    11    12 1
    16    13    14 1
    17     1    16 1
    18     1    17 1
    19     1    18 1
    20     2    19 1
    21     4    20 1
    22     4    21 1
    23     4    22 1
    24    37    23 1
    25     6    24 1
    26     8    25 1
    27     9    26 1
    28     9    27 1
    29    10    28 1
    30    10    29 1
    31    11    30 1
    32    11    31 1
    33    12    32 1
    34    12    33 1
    35    14    34 1
    36    14    35 1
    37    14    36 1
@<TRIPOS>SUBSTRUCTURE
     1 8WS         1 TEMP              0 ****  ****    0 ROOT
