@<TRIPOS>MOLECULE
8WT
   19    20     1     0     0
SMALL
bcc


@<TRIPOS>ATOM
      1 C4           0.0000     0.0000     0.0000 ca         1 8WT       0.570200
      2 C5           0.0290     0.0050     2.3090 ca         1 8WT       0.655900
      3 C6           2.0670     0.0000     1.2320 ca         1 8WT       0.571300
      4 N1           2.3730     0.0000    -0.9780 na         1 8WT       0.330700
      5 N2          -0.7080    -0.0010    -1.1930 nv         1 8WT      -0.559500
      6 C3           1.3930     0.0000     0.0000 ca         1 8WT      -0.577800
      7 N3          -0.6370     0.0050     1.1700 nb         1 8WT      -0.693000
      8 C1           6.2330     0.0010     0.3210 c3         1 8WT       0.138000
      9 C2           3.5770     0.0010    -0.3360 cc         1 8WT       0.267700
     10 N4           1.3450     0.0010     2.3580 nb         1 8WT      -0.615000
     11 N5           3.3860     0.0010     0.9640 nd         1 8WT      -0.606700
     12 H1          -0.5270     0.0090     3.2380 h5         1 8WT      -0.001900
     13 H2           2.2280    -0.1550    -1.9560 hn         1 8WT       0.130700
     14 H3          -1.5550    -0.5280    -1.2710 hn         1 8WT       0.273800
     15 H4          -0.3770     0.5340    -1.9710 hn         1 8WT       0.273800
     16 H5           6.0440     0.8890     0.9130 h1         1 8WT       0.044367
     17 H6           7.2720    -0.0140     0.0150 h1         1 8WT       0.044367
     18 H7           6.0180    -0.8800     0.9130 h1         1 8WT       0.044367
     19 S1           5.1500     0.0010    -1.1290 ss         1 8WT      -0.293300
@<TRIPOS>BOND
     1     1     5 1   
     2     1     6 ar  
     3     1     7 ar  
     4     2     7 ar  
     5     2    10 ar  
     6     2    12 1   
     7     3     6 ar  
     8     3    10 ar  
     9     3    11 1   
    10     4     6 1   
    11     4     9 1   
    12     4    13 1   
    13     5    14 1   
    14     5    15 1   
    15     8    16 1   
    16     8    17 1   
    17     8    18 1   
    18     8    19 1   
    19     9    11 2   
    20     9    19 1   
@<TRIPOS>SUBSTRUCTURE
     1 8WT         1 TEMP              0 ****  ****    0 ROOT
