@<TRIPOS>MOLECULE
molecule
   19    20     1     0     0
SMALL
bcc


@<TRIPOS>ATOM
      1 C4           0.0000     0.0000     0.0000 ca         1 8WT       0.748200
      2 C5           0.0290     0.0050     2.3090 ca         1 8WT       0.707900
      3 C6           2.0670     0.0000     1.2320 ca         1 8WT       0.644300
      4 N1           2.3730     0.0000    -0.9780 na         1 8WT      -0.231300
      5 N2          -0.7080    -0.0010    -1.1930 nv         1 8WT      -1.032500
      6 C3           1.3930     0.0000     0.0000 ca         1 8WT      -0.393800
      7 N3          -0.6370     0.0050     1.1700 nb         1 8WT      -0.795000
      8 C1           6.2330     0.0010     0.3210 c3         1 8WT      -0.005000
      9 C2           3.5770     0.0010    -0.3360 cc         1 8WT       0.469700
     10 N4           1.3450     0.0010     2.3580 nb         1 8WT      -0.730000
     11 N5           3.3860     0.0010     0.9640 nd         1 8WT      -0.691700
     12 H1          -0.5270     0.0090     3.2380 h5         1 8WT       0.064100
     13 H2           2.2280    -0.1550    -1.9560 hn         1 8WT       0.309700
     14 H3          -1.5550    -0.5280    -1.2710 hn         1 8WT       0.441800
     15 H4          -0.3770     0.5340    -1.9710 hn         1 8WT       0.441800
     16 H5           6.0440     0.8890     0.9130 h1         1 8WT       0.079033
     17 H6           7.2720    -0.0140     0.0150 h1         1 8WT       0.079033
     18 H7           6.0180    -0.8800     0.9130 h1         1 8WT       0.079033
     19 S1           5.1500     0.0010    -1.1290 ss         1 8WT      -0.184300
@<TRIPOS>BOND
     1     2     7 ar  
     2     2    10 ar  
     3     7     1 ar  
     4    10     3 ar  
     5     1     5 1   
     6     1     6 ar  
     7     3     6 ar  
     8     3    11 1   
     9     6     4 1   
    10    11     9 2   
    11     4     9 1   
    12     9    19 1   
    13    19     8 1   
    14     2    12 1   
    15     4    13 1   
    16     5    14 1   
    17     5    15 1   
    18     8    16 1   
    19     8    17 1   
    20     8    18 1   
@<TRIPOS>SUBSTRUCTURE
     1 8WT         1 TEMP              0 ****  ****    0 ROOT
