@<TRIPOS>MOLECULE
molecule
   49    51     1     0     0
SMALL
bcc


@<TRIPOS>ATOM
      1 C01          0.0000     0.0000     0.0000 c3         1 8WU       0.125700
      2 O02          1.4280     0.0000     0.0000 os         1 8WU      -0.309900
      3 C03          2.0450     0.0000     1.2100 ca         1 8WU       0.137100
      4 C04          1.2870    -0.0070     2.3730 ca         1 8WU      -0.215000
      5 C05          1.9070    -0.0120     3.6030 ca         1 8WU      -0.081000
      6 C06          3.3040    -0.0120     3.6820 ca         1 8WU      -0.103800
      7 C07          3.9680    -0.0190     4.9930 ce         1 8WU      -0.021200
      8 C08          3.2300    -0.0250     6.1250 cf         1 8WU      -0.270200
      9 C09          3.8900    -0.0320     7.4280 c          1 8WU       0.582900
     10 O10          5.1070    -0.0310     7.4960 o          1 8WU      -0.525100
     11 C11          3.0840    -0.0390     8.6640 ca         1 8WU      -0.232600
     12 C12          1.6850    -0.0450     8.5920 ca         1 8WU      -0.024000
     13 C13          0.9280    -0.0570     9.7410 ca         1 8WU      -0.267000
     14 C14          1.5420    -0.0620    10.9900 ca         1 8WU       0.206100
     15 O15          0.7890    -0.0730    12.1190 os         1 8WU      -0.320900
     16 C16         -0.6300    -0.0790    11.9510 c3         1 8WU       0.126700
     17 C17          2.9350    -0.0570    11.0770 ca         1 8WU      -0.182800
     18 C18          3.6260    -0.0620    12.3830 ce         1 8WU      -0.073200
     19 C19          4.9140     0.2730    12.4130 c2         1 8WU      -0.217200
     20 C20          5.6200     0.6580    11.1380 c3         1 8WU       0.191000
     21 C21          5.4720     2.1640    10.9140 c3         1 8WU      -0.095100
     22 C22          7.1050     0.3100    11.2590 c3         1 8WU      -0.095100
     23 O23          5.0620    -0.0410    10.0250 os         1 8WU      -0.282900
     24 C24          3.7110    -0.0450     9.9130 ca         1 8WU       0.241100
     25 C25          4.0680    -0.0060     2.5090 ca         1 8WU      -0.109000
     26 C26          3.4390     0.0010     1.2800 ca         1 8WU       0.077100
     27 O27          4.1770     0.0020     0.1380 oh         1 8WU      -0.501100
     28 H1          -0.3610     0.8840     0.5110 h1         1 8WU       0.042700
     29 H2          -0.3610     0.0010    -1.0210 h1         1 8WU       0.042700
     30 H3          -0.3610    -0.8850     0.5100 h1         1 8WU       0.042700
     31 H4           0.2060    -0.0070     2.3130 ha         1 8WU       0.141000
     32 H5           1.3130    -0.0170     4.5090 ha         1 8WU       0.136000
     33 H6           5.0500    -0.0190     5.0530 ha         1 8WU       0.155000
     34 H7           2.1480    -0.0250     6.0660 ha         1 8WU       0.130000
     35 H8           1.1960    -0.0410     7.6250 ha         1 8WU       0.137000
     36 H9          -0.1530    -0.0610     9.6730 ha         1 8WU       0.138000
     37 H10         -0.9340     0.8060    11.4050 h1         1 8WU       0.044367
     38 H11         -0.9250    -0.9630    11.3990 h1         1 8WU       0.044367
     39 H12         -1.1080    -0.0850    12.9240 h1         1 8WU       0.044367
     40 H13          3.1030    -0.3420    13.2900 ha         1 8WU       0.148000
     41 H14          5.4620     0.2390    13.3470 ha         1 8WU       0.138000
     42 H15          5.9610     2.6990    11.7190 hc         1 8WU       0.048700
     43 H16          5.9280     2.4350     9.9700 hc         1 8WU       0.048700
     44 H17          4.4200     2.4240    10.8950 hc         1 8WU       0.048700
     45 H18          7.5300     0.8300    12.1090 hc         1 8WU       0.048700
     46 H19          7.2150    -0.7590    11.3990 hc         1 8WU       0.048700
     47 H20          7.6210     0.6110    10.3560 hc         1 8WU       0.048700
     48 H21          5.1500    -0.0060     2.5640 ha         1 8WU       0.149000
     49 H22          4.5990     0.8390     0.0370 ho         1 8WU       0.416000
@<TRIPOS>BOND
     1    16    15 1   
     2    15    14 1   
     3    13    14 ar  
     4    13    12 ar  
     5    14    17 ar  
     6    12    11 ar  
     7    17    18 1   
     8    17    24 ar  
     9    18    19 2   
    10    11    24 ar  
    11    11     9 1   
    12    24    23 1   
    13    19    20 1   
    14    10     9 2   
    15    21    20 1   
    16     9     8 1   
    17    20    23 1   
    18    20    22 1   
    19     8     7 2   
    20     7     6 1   
    21     5     6 ar  
    22     5     4 ar  
    23     6    25 ar  
    24    25    26 ar  
    25     4     3 ar  
    26     3    26 ar  
    27     3     2 1   
    28    26    27 1   
    29     1     2 1   
    30     1    28 1   
    31     1    29 1   
    32     1    30 1   
    33     4    31 1   
    34     5    32 1   
    35     7    33 1   
    36     8    34 1   
    37    12    35 1   
    38    13    36 1   
    39    16    37 1   
    40    16    38 1   
    41    16    39 1   
    42    18    40 1   
    43    19    41 1   
    44    21    42 1   
    45    21    43 1   
    46    21    44 1   
    47    22    45 1   
    48    22    46 1   
    49    22    47 1   
    50    25    48 1   
    51    27    49 1   
@<TRIPOS>SUBSTRUCTURE
     1 8WU         1 TEMP              0 ****  ****    0 ROOT
