@<TRIPOS>MOLECULE
8WW
   32    34     1     0     0
SMALL
bcc


@<TRIPOS>ATOM
      1 N1           0.0000     0.0000     0.0000 nv         1 8WW      -0.634500
      2 N3           5.4070     0.0000     0.3460 na         1 8WW       0.303700
      3 C4           3.2960    -0.0060    -5.3240 c3         1 8WW       0.045900
      4 C5           2.1200    -0.0060    -6.2660 ca         1 8WW      -0.097300
      5 C6           1.5760    -1.2040    -6.6920 ca         1 8WW      -0.094000
      6 C7           0.4970    -1.2040    -7.5560 ca         1 8WW      -0.098000
      7 C8          -0.0400    -0.0080    -7.9930 ca         1 8WW      -0.099000
      8 C10          1.5800     1.1900    -6.6990 ca         1 8WW      -0.094000
      9 C13          3.3560     0.0020     1.2080 ca         1 8WW       0.537300
     10 C1           1.3860    -0.0000     0.0040 ca         1 8WW       0.701900
     11 N2           2.0300    -0.0010    -1.1560 nb         1 8WW      -0.639000
     12 C2           3.3600    -0.0020    -1.2020 ca         1 8WW       0.584600
     13 S1           4.2050    -0.0040    -2.7480 ss         1 8WW      -0.445400
     14 C3           2.7920    -0.0040    -3.8790 c3         1 8WW       0.103700
     15 C9           0.5030     1.1900    -7.5670 ca         1 8WW      -0.098000
     16 C11          4.0710     0.0000     0.0000 ca         1 8WW      -0.506800
     17 C12          5.4690     0.0020     1.6970 cc         1 8WW       0.258700
     18 N4           4.2660     0.0090     2.2000 nd         1 8WW      -0.585700
     19 N5           2.0200     0.0020     1.1650 nb         1 8WW      -0.562000
     20 H1          -0.5000     0.8670     0.0080 hn         1 8WW       0.278800
     21 H2          -0.5010    -0.8670     0.0110 hn         1 8WW       0.278800
     22 H3           6.1850    -0.0050    -0.2840 hn         1 8WW       0.138700
     23 H4           3.8970    -0.8900    -5.4970 hc         1 8WW       0.028200
     24 H5           3.8970     0.8790    -5.4980 hc         1 8WW       0.028200
     25 H6           1.9960    -2.1420    -6.3490 ha         1 8WW       0.106000
     26 H7           0.0710    -2.1430    -7.8900 ha         1 8WW       0.103000
     27 H8          -0.8850    -0.0090    -8.6710 ha         1 8WW       0.103000
     28 H9           2.0060     2.1290    -6.3650 ha         1 8WW       0.106000
     29 H10          2.1910    -0.8890    -3.7050 h1         1 8WW       0.055700
     30 H11          2.1910     0.8800    -3.7060 h1         1 8WW       0.055700
     31 H12          0.0820     2.1280    -7.9080 ha         1 8WW       0.103000
     32 H13          6.3850    -0.0010     2.2760 h5         1 8WW       0.031800
@<TRIPOS>BOND
     1     1    10 1   
     2     1    20 1   
     3     1    21 1   
     4     2    16 1   
     5     2    17 1   
     6     2    22 1   
     7     3     4 1   
     8     3    14 1   
     9     3    23 1   
    10     3    24 1   
    11     4     5 ar  
    12     4     8 ar  
    13     5     6 ar  
    14     5    25 1   
    15     6     7 ar  
    16     6    26 1   
    17     7    15 ar  
    18     7    27 1   
    19     8    15 ar  
    20     8    28 1   
    21     9    16 ar  
    22     9    18 1   
    23     9    19 ar  
    24    10    11 ar  
    25    10    19 ar  
    26    11    12 ar  
    27    12    13 1   
    28    12    16 ar  
    29    13    14 1   
    30    14    29 1   
    31    14    30 1   
    32    15    31 1   
    33    17    18 2   
    34    17    32 1   
@<TRIPOS>SUBSTRUCTURE
     1 8WW         1 TEMP              0 ****  ****    0 ROOT
