@<TRIPOS>MOLECULE
molecule
   32    34     1     0     0
SMALL
bcc


@<TRIPOS>ATOM
      1 N1           0.0000     0.0000     0.0000 nv         1 8WW      -1.054500
      2 N3           5.4070     0.0000     0.3460 na         1 8WW      -0.245300
      3 C4           3.2960    -0.0060    -5.3240 c3         1 8WW      -0.028100
      4 C5           2.1200    -0.0060    -6.2660 ca         1 8WW      -0.085300
      5 C6           1.5760    -1.2040    -6.6920 ca         1 8WW      -0.121000
      6 C7           0.4970    -1.2040    -7.5560 ca         1 8WW      -0.125000
      7 C8          -0.0400    -0.0080    -7.9930 ca         1 8WW      -0.127000
      8 C10          1.5800     1.1900    -6.6990 ca         1 8WW      -0.121000
      9 C13          3.3560     0.0020     1.2080 ca         1 8WW       0.634300
     10 C1           1.3860    -0.0000     0.0040 ca         1 8WW       0.932900
     11 N2           2.0300    -0.0010    -1.1560 nb         1 8WW      -0.758000
     12 C2           3.3600    -0.0020    -1.2020 ca         1 8WW       0.606600
     13 S1           4.2050    -0.0040    -2.7480 ss         1 8WW      -0.351400
     14 C3           2.7920    -0.0040    -3.8790 c3         1 8WW       0.021700
     15 C9           0.5030     1.1900    -7.5670 ca         1 8WW      -0.125000
     16 C11          4.0710     0.0000     0.0000 ca         1 8WW      -0.350800
     17 C12          5.4690     0.0020     1.6970 cc         1 8WW       0.457700
     18 N4           4.2660     0.0090     2.2000 nd         1 8WW      -0.674700
     19 N5           2.0200     0.0020     1.1650 nb         1 8WW      -0.707000
     20 H1          -0.5000     0.8670     0.0080 hn         1 8WW       0.444800
     21 H2          -0.5010    -0.8670     0.0110 hn         1 8WW       0.444800
     22 H3           6.1850    -0.0050    -0.2840 hn         1 8WW       0.312700
     23 H4           3.8970    -0.8900    -5.4970 hc         1 8WW       0.057200
     24 H5           3.8970     0.8790    -5.4980 hc         1 8WW       0.057200
     25 H6           1.9960    -2.1420    -6.3490 ha         1 8WW       0.131000
     26 H7           0.0710    -2.1430    -7.8900 ha         1 8WW       0.131000
     27 H8          -0.8850    -0.0090    -8.6710 ha         1 8WW       0.130000
     28 H9           2.0060     2.1290    -6.3650 ha         1 8WW       0.131000
     29 H10          2.1910    -0.8890    -3.7050 h1         1 8WW       0.083700
     30 H11          2.1910     0.8800    -3.7060 h1         1 8WW       0.083700
     31 H12          0.0820     2.1280    -7.9080 ha         1 8WW       0.131000
     32 H13          6.3850    -0.0010     2.2760 h5         1 8WW       0.081800
@<TRIPOS>BOND
     1     1    10 1
     2     3    14 1
     3     3     4 1
     4    14    13 1
     5     5     4 ar
     6     5     6 ar
     7    10    11 ar
     8    10    19 ar
     9    11    12 ar
    10     4     8 ar
    11     6     7 ar
    12    19     9 ar
    13    12    13 1
    14    12    16 ar
    15     8    15 ar
    16     7    15 ar
    17     9    16 ar
    18     9    18 1
    19    16     2 1
    20    18    17 2
    21     2    17 1
    22     1    20 1
    23     1    21 1
    24     2    22 1
    25     3    23 1
    26     3    24 1
    27     5    25 1
    28     6    26 1
    29     7    27 1
    30     8    28 1
    31    14    29 1
    32    14    30 1
    33    15    31 1
    34    17    32 1
@<TRIPOS>SUBSTRUCTURE
     1 8WW         1 TEMP              0 ****  ****    0 ROOT
