@<TRIPOS>MOLECULE
molecule
   36    38     1     0     0
SMALL
bcc


@<TRIPOS>ATOM
      1 C10          0.0000     0.0000     0.0000 c3         1 8WX       0.042900
      2 C11         -1.4640     0.0000     5.0680 cc         1 8WX      -0.124000
      3 C12         -1.0190     1.0780     4.2830 cc         1 8WX      -0.160000
      4 C13         -0.4880    -3.3810     1.1910 c3         1 8WX      -0.019900
      5 C14         -3.9240    -2.2830     5.1330 c3         1 8WX       0.183700
      6 C15         -4.3450    -3.3080     6.1490 ca         1 8WX      -0.093300
      7 C16         -3.8390    -3.4150     7.4280 ca         1 8WX      -0.140000
      8 C17         -5.3080    -4.2190     5.7980 ca         1 8WX      -0.140000
      9 C18          1.4720     0.0000     0.0000 c1         1 8WX       0.237700
     10 C19         -4.3110    -4.4040     8.2680 ca         1 8WX      -0.104000
     11 C20         -5.8450    -5.2320     6.5440 ca         1 8WX      -0.104000
     12 C21         -5.2330    -5.1130     7.6290 ca         1 8WX      -0.101000
     13 C5          -0.5020    -0.8150     1.1640 cd         1 8WX      -0.153300
     14 C6          -1.2080    -1.4240     3.1580 cd         1 8WX      -0.062300
     15 C7          -0.7690    -2.1400     1.1590 cc         1 8WX       0.106400
     16 C8          -1.5570    -1.2440     4.5150 cd         1 8WX       0.140100
     17 C9          -0.6850     0.8870     2.9910 cd         1 8WX      -0.119300
     18 N2          -0.7720    -0.3530     2.4230 na         1 8WX       0.056700
     19 N3          -1.1990    -2.4920     2.3720 nc         1 8WX      -0.328600
     20 N4           2.6080     0.0120     0.0160 n1         1 8WX      -0.359800
     21 O1          -2.3030    -2.2760     5.4700 os         1 8WX      -0.419900
     22 H1          -0.6650    -0.0180    -0.8550 hc         1 8WX       0.080200
     23 H2          -0.3740     1.0130     0.0930 hc         1 8WX       0.080200
     24 H3          -1.4020     0.2890     6.1100 ha         1 8WX       0.162000
     25 H4          -0.6160     2.0770     4.3960 ha         1 8WX       0.160000
     26 H5          -0.8260    -4.0260     1.9940 hc         1 8WX       0.060033
     27 H6          -0.8650    -4.1580     0.5380 hc         1 8WX       0.060033
     28 H7           0.5200    -3.5570     1.5470 hc         1 8WX       0.060033
     29 H8          -3.8900    -1.2190     4.9330 h1         1 8WX       0.082200
     30 H9          -3.8940    -2.8660     4.2200 h1         1 8WX       0.082200
     31 H10         -2.8000    -3.1520     7.2730 ha         1 8WX       0.132000
     32 H11         -5.5340    -4.1960     4.7390 ha         1 8WX       0.132000
     33 H14         -3.7150    -4.3900     9.1720 ha         1 8WX       0.169000
     34 H15         -6.3920    -5.9640     5.9630 ha         1 8WX       0.169000
     35 H16         -5.6320    -5.8480     8.3170 ha         1 8WX       0.076000
     36 H17         -0.2200     1.6470     2.3750 h4         1 8WX       0.157000
@<TRIPOS>BOND
     1     3     2 1
     2     3    17 2
     3     2    16 2
     4    20     9 3
     5    17    18 1
     6    16    21 1
     7    16    14 1
     8    18    14 1
     9    18    13 1
    10     9     1 1
    11     5    21 1
    12     5     6 1
    13     8     6 ar
    14     8    11 ar
    15    14    19 2
    16    13     1 1
    17    13    15 2
    18     6     7 ar
    19    11    12 ar
    20    19    15 1
    21    15     4 1
    22     7    10 ar
    23    12    10 ar
    24     1    22 1
    25     1    23 1
    26     2    24 1
    27     3    25 1
    28     4    26 1
    29     4    27 1
    30     4    28 1
    31     5    29 1
    32     5    30 1
    33     7    31 1
    34     8    32 1
    35    10    33 1
    36    11    34 1
    37    12    35 1
    38    17    36 1
@<TRIPOS>SUBSTRUCTURE
     1 8WX         1 TEMP              0 ****  ****    0 ROOT
