@<TRIPOS>MOLECULE
8WX
   36    39     1     0     0
SMALL
bcc


@<TRIPOS>ATOM
      1 C10          0.0000     0.0000     0.0000 c3         1 8WX       0.149000
      2 C11         -1.4640     0.0000     5.0680 c2         1 8WX      -0.133000
      3 C12         -1.0190     1.0780     4.2830 c2         1 8WX      -0.085000
      4 C13         -0.4880    -3.3810     1.1910 DU         1 8WX      -0.044000
      5 C14         -3.9240    -2.2830     5.1330 c3         1 8WX       0.121000
      6 C15         -4.3450    -3.3080     6.1490 ca         1 8WX      -0.095000
      7 C16         -3.8390    -3.4150     7.4280 ca         1 8WX      -0.131000
      8 C17         -5.3080    -4.2190     5.7980 ca         1 8WX      -0.131000
      9 C18          1.4720     0.0000     0.0000 c1         1 8WX      -0.142000
     10 C19         -4.3110    -4.4040     8.2680 ca         1 8WX      -0.066500
     11 C20         -5.8450    -5.2320     6.5440 ca         1 8WX      -0.066500
     12 C21         -5.2330    -5.1130     7.6290 ca         1 8WX      -0.073000
     13 C5          -0.5020    -0.8150     1.1640 c2         1 8WX      -0.348000
     14 C6          -1.2080    -1.4240     3.1580 c2         1 8WX      -0.227000
     15 C7          -0.7690    -2.1400     1.1590 cu         1 8WX      -0.010000
     16 C8          -1.5570    -1.2440     4.5150 c2         1 8WX       0.150000
     17 C9          -0.6850     0.8870     2.9910 c2         1 8WX      -0.305000
     18 N2          -0.7720    -0.3530     2.4230 na         1 8WX       0.562000
     19 N3          -1.1990    -2.4920     2.3720 na         1 8WX      -0.210000
     20 N4           2.6080     0.0120     0.0160 n1         1 8WX      -0.053000
     21 O1          -2.3030    -2.2760     5.4700 os         1 8WX      -0.291000
     22 H1          -0.6650    -0.0180    -0.8550 hc         1 8WX       0.067500
     23 H2          -0.3740     1.0130     0.0930 hc         1 8WX       0.067500
     24 H3          -1.4020     0.2890     6.1100 ha         1 8WX       0.135000
     25 H4          -0.6160     2.0770     4.3960 ha         1 8WX       0.130000
     26 H5          -0.8260    -4.0260     1.9940 ha         1 8WX       0.064000
     27 H6          -0.8650    -4.1580     0.5380 ha         1 8WX       0.064000
     28 H7           0.5200    -3.5570     1.5470 ha         1 8WX       0.064000
     29 H8          -3.8900    -1.2190     4.9330 h1         1 8WX       0.077500
     30 H9          -3.8940    -2.8660     4.2200 h1         1 8WX       0.077500
     31 H10         -2.8000    -3.1520     7.2730 ha         1 8WX       0.109500
     32 H11         -5.5340    -4.1960     4.7390 ha         1 8WX       0.109500
     33 H14         -3.7150    -4.3900     9.1720 ha         1 8WX       0.140500
     34 H15         -6.3920    -5.9640     5.9630 ha         1 8WX       0.140500
     35 H16         -5.6320    -5.8480     8.3170 ha         1 8WX       0.044000
     36 H17         -0.2200     1.6470     2.3750 h4         1 8WX       0.138000
@<TRIPOS>BOND
     1     1     9 1   
     2     1    13 1   
     3     1    22 1   
     4     1    23 1   
     5     2     3 1   
     6     2    16 1   
     7     2    24 1   
     8     3    17 1   
     9     3    25 1   
    10     4    15 1   
    11     4    19 1   
    12     4    26 1   
    13     4    27 1   
    14     4    28 1   
    15     5     6 1   
    16     5    21 1   
    17     5    29 1   
    18     5    30 1   
    19     6     7 1   
    20     6     8 1   
    21     7    10 1   
    22     7    31 1   
    23     8    11 1   
    24     8    32 1   
    25     9    20 1   
    26    10    12 1   
    27    10    33 1   
    28    11    12 1   
    29    11    34 1   
    30    12    35 1   
    31    13    15 1   
    32    13    18 1   
    33    14    16 1   
    34    14    18 1   
    35    14    19 1   
    36    15    19 1   
    37    16    21 1   
    38    17    18 1   
    39    17    36 1   
@<TRIPOS>SUBSTRUCTURE
     1 8WX         1 TEMP              0 ****  ****    0 ROOT
