@<TRIPOS>MOLECULE
molecule
   48    50     1     0     0
SMALL
bcc


@<TRIPOS>ATOM
      1 C1           0.0000     0.0000     0.0000 c3         1 8X0       0.128700
      2 O2           1.4290     0.0000     0.0000 os         1 8X0      -0.325900
      3 C3           2.0460     0.0000     1.2090 ca         1 8X0       0.154100
      4 C4           3.4340     0.0010     1.2800 ca         1 8X0      -0.195000
      5 C5           4.0640     0.0010     2.5040 ca         1 8X0      -0.068000
      6 C6           3.3040     0.0010     3.6790 ca         1 8X0      -0.121800
      7 C7           3.9710     0.0010     4.9890 ce         1 8X0      -0.018200
      8 C8           3.2350     0.0010     6.1220 cf         1 8X0      -0.275200
      9 C9           3.8980     0.0010     7.4240 c          1 8X0       0.583900
     10 O10          5.1140     0.0030     7.4880 o          1 8X0      -0.526100
     11 C11          3.0950     0.0020     8.6610 ca         1 8X0      -0.232600
     12 C12          1.6960    -0.0050     8.5920 ca         1 8X0      -0.023000
     13 C13          0.9410    -0.0100     9.7440 ca         1 8X0      -0.268000
     14 C14          1.5580    -0.0090    10.9910 ca         1 8X0       0.206100
     15 O15          0.8080    -0.0150    12.1210 os         1 8X0      -0.320900
     16 C16         -0.6110    -0.0220    11.9580 c3         1 8X0       0.127700
     17 C17          2.9520    -0.0030    11.0750 ca         1 8X0      -0.183800
     18 C18          3.6460    -0.0030    12.3810 ce         1 8X0      -0.073200
     19 C19          4.9350     0.3330    12.4030 c2         1 8X0      -0.218200
     20 C20          5.6370     0.7110    11.1260 c3         1 8X0       0.192000
     21 C21          7.1220     0.3630    11.2460 c3         1 8X0      -0.095100
     22 C22          5.4890     2.2160    10.8950 c3         1 8X0      -0.095100
     23 O23          5.0760     0.0070    10.0180 os         1 8X0      -0.282900
     24 C24          3.7250     0.0020     9.9100 ca         1 8X0       0.240100
     25 C25          1.9060     0.0010     3.6030 ca         1 8X0      -0.068000
     26 C26          1.2850     0.0050     2.3740 ca         1 8X0      -0.195000
     27 H1          -0.3610     0.8850     0.5100 h1         1 8X0       0.042700
     28 H2          -0.3610    -0.0010    -1.0210 h1         1 8X0       0.042700
     29 H3          -0.3610    -0.8840     0.5120 h1         1 8X0       0.042700
     30 H4           4.0210     0.0010     0.3700 ha         1 8X0       0.141500
     31 H5           5.1460     0.0020     2.5570 ha         1 8X0       0.137500
     32 H6           5.0520     0.0010     5.0460 ha         1 8X0       0.154000
     33 H7           2.1530     0.0010     6.0660 ha         1 8X0       0.129000
     34 H8           1.2040    -0.0050     7.6270 ha         1 8X0       0.137000
     35 H9          -0.1400    -0.0150     9.6780 ha         1 8X0       0.137000
     36 H10         -0.9070    -0.9060    11.4070 h1         1 8X0       0.044367
     37 H11         -1.0870    -0.0260    12.9310 h1         1 8X0       0.044367
     38 H12         -0.9160     0.8630    11.4110 h1         1 8X0       0.044367
     39 H13          3.1250    -0.2780    13.2900 ha         1 8X0       0.148000
     40 H14          5.4790     0.3280    13.3400 ha         1 8X0       0.138000
     41 H15          7.6370     0.6570    10.3400 hc         1 8X0       0.048700
     42 H16          7.2320    -0.7050    11.3940 hc         1 8X0       0.048700
     43 H17          7.5500     0.8900    12.0910 hc         1 8X0       0.048700
     44 H18          5.9410     2.4820     9.9470 hc         1 8X0       0.048700
     45 H19          4.4380     2.4770    10.8800 hc         1 8X0       0.048700
     46 H20          5.9830     2.7550    11.6950 hc         1 8X0       0.048700
     47 H21          1.3130     0.0030     4.5100 ha         1 8X0       0.137500
     48 H22          0.2040     0.0050     2.3140 ha         1 8X0       0.141500
@<TRIPOS>BOND
     1    16    15 1
     2    15    14 1
     3    13    14 ar
     4    13    12 ar
     5    14    17 ar
     6    12    11 ar
     7    17    18 1
     8    17    24 ar
     9    18    19 2
    10    11    24 ar
    11    11     9 1
    12    24    23 1
    13    19    20 1
    14    10     9 2
    15     9     8 1
    16    22    20 1
    17    20    23 1
    18    20    21 1
    19     7     8 2
    20     7     6 1
    21    25     6 ar
    22    25    26 ar
    23     6     5 ar
    24    26     3 ar
    25     5     4 ar
    26     3     4 ar
    27     3     2 1
    28     2     1 1
    29     1    27 1
    30     1    28 1
    31     1    29 1
    32     4    30 1
    33     5    31 1
    34     7    32 1
    35     8    33 1
    36    12    34 1
    37    13    35 1
    38    16    36 1
    39    16    37 1
    40    16    38 1
    41    18    39 1
    42    19    40 1
    43    21    41 1
    44    21    42 1
    45    21    43 1
    46    22    44 1
    47    22    45 1
    48    22    46 1
    49    25    47 1
    50    26    48 1
@<TRIPOS>SUBSTRUCTURE
     1 8X0         1 TEMP              0 ****  ****    0 ROOT
