@<TRIPOS>MOLECULE
8X1
   48    51     1     0     0
SMALL
bcc


@<TRIPOS>ATOM
      1 O2S          0.0000     0.0000     0.0000 o          1 8X1      -0.584800
      2 S            1.4210     0.0000     0.0000 s6         1 8X1       1.364100
      3 O1S          2.1990     0.0000     1.1900 o          1 8X1      -0.584800
      4 N3S          1.8880    -1.3350    -0.8630 ns         1 8X1      -0.351300
      5 C            3.1980    -1.5850    -1.0610 c          1 8X1       0.654100
      6 CA           3.6230    -2.7980    -1.8460 cy         1 8X1       0.018500
      7 CB           3.6430    -4.0960    -1.0190 cy         1 8X1      -0.083400
      8 CG           5.1110    -3.7560    -0.7030 cy         1 8X1       0.135800
      9 N            5.0910    -2.9560    -1.9520 n6         1 8X1      -0.543200
     10 O            4.0340    -0.8330    -0.6060 o          1 8X1      -0.546100
     11 O5'          1.8510     1.2240    -0.7950 os         1 8X1      -0.433500
     12 C5'          1.0360     1.4900    -1.9380 c3         1 8X1       0.252400
     13 C4'          1.5570     2.7360    -2.6570 c3         1 8X1       0.159100
     14 C3'          0.6190     3.1170    -3.8230 c3         1 8X1       0.126100
     15 O3'         -0.2720     4.1620    -3.4280 oh         1 8X1      -0.548800
     16 C2'          1.5770     3.6120    -4.9290 c3         1 8X1       0.123100
     17 O2'          1.3060     4.9780    -5.2520 oh         1 8X1      -0.538800
     18 C1'          2.9800     3.4730    -4.3020 c3         1 8X1       0.158800
     19 O4'          2.8300     2.4600    -3.2820 os         1 8X1      -0.389600
     20 N9           3.9500     3.0420    -5.3110 na         1 8X1       0.201000
     21 C4           4.6370     3.8560    -6.1770 ca         1 8X1       0.266800
     22 C5           5.4440     3.0060    -6.9510 ca         1 8X1      -0.229200
     23 N7           5.2140     1.7410    -6.5260 nc         1 8X1      -0.494100
     24 C8           4.3420     1.7600    -5.5600 cd         1 8X1       0.255700
     25 N3           4.6770     5.1660    -6.4000 nb         1 8X1      -0.658000
     26 C2           5.4630     5.6630    -7.3330 ca         1 8X1       0.678900
     27 N1           6.2390     4.9050    -8.0850 nb         1 8X1      -0.723000
     28 C6           6.2650     3.5850    -7.9330 ca         1 8X1       0.590200
     29 N6           7.0820     2.7970    -8.7260 nv         1 8X1      -0.515500
     30 H1           1.1990    -1.9680    -1.2160 hn         1 8X1       0.231500
     31 H2           3.1190    -2.9150    -2.7970 h1         1 8X1       0.037700
     32 H3           3.5340    -4.9880    -1.6240 hc         1 8X1       0.031700
     33 H4           3.0000    -4.0550    -0.1480 hc         1 8X1       0.031700
     34 H5           5.7690    -4.6150    -0.7590 h1         1 8X1       0.040200
     35 H6           5.2260    -3.1510     0.1880 h1         1 8X1       0.040200
     36 H7           5.3080    -3.5460    -2.7300 hn         1 8X1       0.256800
     37 H9           0.0140     1.6570    -1.6210 h1         1 8X1       0.018200
     38 H10          1.0710     0.6430    -2.6130 h1         1 8X1       0.018200
     39 H11          1.6510     3.5650    -1.9660 h1         1 8X1       0.061700
     40 H12          0.0680     2.2480    -4.1620 h1         1 8X1       0.010700
     41 H13         -1.1540     3.9310    -3.6680 ho         1 8X1       0.391000
     42 H14          1.4930     2.9850    -5.8090 h1         1 8X1       0.018700
     43 H15          0.6400     5.0180    -5.9180 ho         1 8X1       0.393000
     44 H16          3.2850     4.4110    -3.8550 h2         1 8X1       0.073700
     45 H17          3.9800     0.8860    -5.0320 h5         1 8X1       0.036800
     46 H18          5.4720     6.7350    -7.4900 h5         1 8X1      -0.003900
     47 H19          7.2550     3.0550    -9.6780 hn         1 8X1       0.276300
     48 H20          7.5220     1.9850    -8.3410 hn         1 8X1       0.276300
@<TRIPOS>BOND
     1     1     2 2   
     2     2     3 2   
     3     2     4 1   
     4     2    11 1   
     5     4     5 1   
     6     4    30 1   
     7     5     6 1   
     8     5    10 2   
     9     6     7 1   
    10     6     9 1   
    11     6    31 1   
    12     7     8 1   
    13     7    32 1   
    14     7    33 1   
    15     8     9 1   
    16     8    34 1   
    17     8    35 1   
    18     9    36 1   
    19    11    12 1   
    20    12    13 1   
    21    12    37 1   
    22    12    38 1   
    23    13    14 1   
    24    13    19 1   
    25    13    39 1   
    26    14    15 1   
    27    14    16 1   
    28    14    40 1   
    29    15    41 1   
    30    16    17 1   
    31    16    18 1   
    32    16    42 1   
    33    17    43 1   
    34    18    19 1   
    35    18    20 1   
    36    18    44 1   
    37    20    21 1   
    38    20    24 1   
    39    21    22 ar  
    40    21    25 ar  
    41    22    23 1   
    42    22    28 ar  
    43    23    24 2   
    44    24    45 1   
    45    25    26 ar  
    46    26    27 ar  
    47    26    46 1   
    48    27    28 ar  
    49    28    29 1   
    50    29    47 1   
    51    29    48 1   
@<TRIPOS>SUBSTRUCTURE
     1 8X1         1 TEMP              0 ****  ****    0 ROOT
