@<TRIPOS>MOLECULE
molecule
   55    59     1     0     0
SMALL
bcc


@<TRIPOS>ATOM
      1 C1           0.0000     0.0000     0.0000 c3         1 8X2       0.161300
      2 C2           1.5300     0.0000     0.0000 c3         1 8X2       0.164800
      3 C3           1.5310     1.1810     2.1130 c3         1 8X2       0.164800
      4 N6          16.1750    -1.2690     3.3460 ns         1 8X2      -0.596900
      5 C7           5.5210    -0.2060     0.2840 ca         1 8X2      -0.120000
      6 C8           6.1800    -0.2180     1.5060 ca         1 8X2       0.132600
      7 C9           5.4530    -0.1580     2.6880 ca         1 8X2      -0.120000
      8 C10          4.0750    -0.0850     2.6480 ca         1 8X2      -0.150500
      9 C11          8.2060    -0.9710     2.5770 ca         1 8X2       0.949900
     10 C12          8.0320    -2.3090     4.4490 ca         1 8X2       0.505200
     11 C13          9.4080    -2.3020     4.5750 ca         1 8X2      -0.454600
     12 C14         10.1610    -1.5800     3.6410 ca         1 8X2       0.602800
     13 C15         11.6340    -1.5420     3.7340 cc         1 8X2      -0.228800
     14 C16         12.4690    -0.8760     2.8840 cc         1 8X2      -0.051000
     15 C19         14.9210    -2.3680     5.1930 c3         1 8X2      -0.030100
     16 C20         16.0860    -2.4410     4.2060 c3         1 8X2       0.122000
     17 C21         15.0830    -0.6510     2.8370 c          1 8X2       0.752100
     18 O           15.1760     0.2340     2.0090 o          1 8X2      -0.633500
     19 C17         13.7740    -1.1060     3.3370 cc         1 8X2      -0.243600
     20 C18         13.6870    -1.9220     4.4630 cd         1 8X2      -0.080600
     21 N5          12.3980    -2.1760     4.6920 na         1 8X2      -0.115100
     22 N3           7.4700    -1.6420     3.4510 nb         1 8X2      -0.795000
     23 N4           9.5270    -0.9380     2.6610 nb         1 8X2      -0.790000
     24 N2           7.5780    -0.2920     1.5460 nu         1 8X2      -0.750300
     25 C6           4.1420    -0.1340     0.2440 ca         1 8X2      -0.150500
     26 C5           3.4160    -0.0730     1.4270 ca         1 8X2       0.088600
     27 N1           2.0190     0.0000     1.3860 nh         1 8X2      -0.598000
     28 C4          -0.0000     1.1810     2.1130 c3         1 8X2       0.161300
     29 N           -0.4870     1.1800     0.7260 n3         1 8X2      -0.734600
     30 C           -1.9540     1.2570     0.6840 c3         1 8X2       0.153100
     31 H1          -0.3600    -0.8970     0.4880 h1         1 8X2       0.042200
     32 H2          -0.3600     0.0310    -1.0210 h1         1 8X2       0.042200
     33 H3           1.8900    -0.8860    -0.5090 h1         1 8X2       0.048950
     34 H4           1.8900     0.8860    -0.5090 h1         1 8X2       0.048950
     35 H5           1.8910     2.0790     1.6240 h1         1 8X2       0.048950
     36 H6           1.8920     1.1500     3.1340 h1         1 8X2       0.048950
     37 H8           6.0870    -0.2530    -0.6380 ha         1 8X2       0.144500
     38 H9           5.9680    -0.1670     3.6410 ha         1 8X2       0.144500
     39 H10          3.5090    -0.0370     3.5710 ha         1 8X2       0.138500
     40 H11          7.4200    -2.8550     5.1550 h4         1 8X2       0.029100
     41 H12          9.8930    -2.8390     5.3820 ha         1 8X2       0.131000
     42 H13         12.1720    -0.1410     2.1450 ha         1 8X2       0.184000
     43 H14         15.1550    -1.6570     5.9760 hc         1 8X2       0.061700
     44 H15         14.7520    -3.3480     5.6240 hc         1 8X2       0.061700
     45 H16         15.9190    -3.3000     3.5680 h1         1 8X2       0.050700
     46 H17         17.0010    -2.4900     4.7840 h1         1 8X2       0.050700
     47 H18         12.0420    -2.7360     5.4410 hn         1 8X2       0.298700
     48 H19          8.1240     0.1740     0.8480 hn         1 8X2       0.467800
     49 H20          3.6270    -0.1250    -0.7090 ha         1 8X2       0.138500
     50 H21         -0.3600     2.0670     2.6210 h1         1 8X2       0.042200
     51 H22         -0.3600     0.2950     2.6220 h1         1 8X2       0.042200
     52 H24         -2.3750     0.3860     1.1710 h1         1 8X2       0.032700
     53 H25         -2.2840     1.2890    -0.3470 h1         1 8X2       0.032700
     54 H26         -2.2840     2.1520     1.1970 h1         1 8X2       0.032700
     55 H7          17.0800    -0.9050     3.1230 hn         1 8X2       0.325500
@<TRIPOS>BOND
     1    18    17 2
     2    10    11 ar
     3    10    22 ar
     4    11    12 ar
     5    14    19 1
     6    14    13 2
     7    17    19 1
     8    17     4 1
     9    22     9 ar
    10    19    20 2
    11    12    13 1
    12    12    23 ar
    13    13    21 1
    14     4    16 1
    15     9    23 ar
    16     9    24 1
    17    20    21 1
    18    20    15 1
    19    24     6 1
    20    15    16 1
    21     6     7 ar
    22     6     5 ar
    23     7     8 ar
    24     5    25 ar
    25     8    26 ar
    26    25    26 ar
    27    26    27 1
    28     2    27 1
    29     2     1 1
    30     3    27 1
    31     3    28 1
    32    29     1 1
    33    29    28 1
    34    29    30 1
    35     1    31 1
    36     1    32 1
    37     2    33 1
    38     2    34 1
    39     3    35 1
    40     3    36 1
    41     4    55 1
    42     5    37 1
    43     7    38 1
    44     8    39 1
    45    10    40 1
    46    11    41 1
    47    14    42 1
    48    15    43 1
    49    15    44 1
    50    16    45 1
    51    16    46 1
    52    21    47 1
    53    24    48 1
    54    25    49 1
    55    28    50 1
    56    28    51 1
    57    30    52 1
    58    30    53 1
    59    30    54 1
@<TRIPOS>SUBSTRUCTURE
     1 8X2         1 TEMP              0 ****  ****    0 ROOT
