@<TRIPOS>MOLECULE
molecule
   55    59     1     0     0
SMALL
bcc


@<TRIPOS>ATOM
      1 C1           0.0000     0.0000     0.0000 ca         1 8X5      -0.132000
      2 C2           1.3820     0.0000     0.0000 ca         1 8X5      -0.113500
      3 C3           2.0740     0.0000     1.1970 ca         1 8X5      -0.115300
      4 C7           4.3020     2.0400    -0.0800 c3         1 8X5       0.121000
      5 C8           3.8770     3.5100    -0.0790 c3         1 8X5      -0.030100
      6 C9           4.4050     4.1650     1.1710 cc         1 8X5      -0.083600
      7 C10          4.5980     3.4330     2.3390 cc         1 8X5      -0.243600
      8 C11          5.0940     4.3120     3.3090 cc         1 8X5      -0.053000
      9 C12          5.1860     5.5380     2.7170 cd         1 8X5      -0.228800
     10 C13          5.6640     6.7750     3.3680 ca         1 8X5       0.603800
     11 C14          5.7100     7.9800     2.6560 ca         1 8X5      -0.460600
     12 C15          6.1620     9.1120     3.3070 ca         1 8X5       0.508200
     13 C16          6.4800     7.8720     5.2260 ca         1 8X5       0.954900
     14 C19          9.3540    10.4530     7.7000 c3         1 8X5       0.140900
     15 C20          7.7080    10.1580     9.4210 c3         1 8X5       0.140900
     16 C21          7.1370     8.9180     8.7270 c3         1 8X5      -0.134400
     17 C22          4.2850     1.9930     2.3850 c          1 8X5       0.757100
     18 O1           4.2240     1.3870     3.4370 o          1 8X5      -0.639500
     19 N            4.0690     1.3810     1.1970 n          1 8X5      -0.496800
     20 C6           3.5810    -0.0000     1.1970 c3         1 8X5       0.152300
     21 C4           1.3820     0.0010     2.3940 ca         1 8X5      -0.113500
     22 C5          -0.0000    -0.0000     2.3940 ca         1 8X5      -0.132000
     23 C           -0.6910     0.0050     1.1970 ca         1 8X5      -0.125000
     24 N1           4.7600     5.4280     1.4110 na         1 8X5      -0.115100
     25 N3           6.0530     6.7630     4.6430 nb         1 8X5      -0.794000
     26 N2           6.5380     9.0240     4.5750 nb         1 8X5      -0.812000
     27 N4           6.8770     7.8260     6.5520 nu         1 8X5      -0.891900
     28 C17          7.3530     9.0420     7.2160 c3         1 8X5       0.251500
     29 O            9.0950    10.2860     9.0960 os         1 8X5      -0.423600
     30 C18          8.8490     9.2250     6.9390 c3         1 8X5      -0.134400
     31 H1          -0.5420     0.0020    -0.9380 ha         1 8X5       0.129500
     32 H2           1.9230    -0.0040    -0.9380 ha         1 8X5       0.136500
     33 H3           5.3670     2.0090    -0.2730 h1         1 8X5       0.052200
     34 H4           3.7020     1.5290    -0.8240 h1         1 8X5       0.052200
     35 H5           2.7950     3.5510    -0.0540 hc         1 8X5       0.066700
     36 H6           4.3320     3.9950    -0.9350 hc         1 8X5       0.066700
     37 H7           5.1770     4.1080     4.3690 ha         1 8X5       0.183000
     38 H8           5.3960     8.0250     1.6200 ha         1 8X5       0.130000
     39 H9           6.2130    10.0600     2.7860 h4         1 8X5       0.026100
     40 H11          8.8400    11.3360     7.3410 h1         1 8X5       0.049450
     41 H12          7.1760    11.0380     9.0810 h1         1 8X5       0.049450
     42 H13          7.5980    10.0530    10.4930 h1         1 8X5       0.049450
     43 H14          7.6440     8.0330     9.0930 hc         1 8X5       0.058950
     44 H15          6.0760     8.8450     8.9350 hc         1 8X5       0.058950
     45 H16          3.9420    -0.5110     0.3130 h1         1 8X5       0.066200
     46 H17          3.9420    -0.5110     2.0820 h1         1 8X5       0.066200
     47 H18          1.9240    -0.0010     3.3330 ha         1 8X5       0.136500
     48 H19         -0.5420     0.0020     3.3320 ha         1 8X5       0.129500
     49 H20         -1.7740     0.0040     1.1970 ha         1 8X5       0.128000
     50 H21          4.7240     6.1770     0.7480 hn         1 8X5       0.298700
     51 H22          6.8110     6.9690     7.0650 hn         1 8X5       0.459800
     52 H23          6.8100     9.9010     6.8430 h1         1 8X5       0.078700
     53 H24          9.3880     8.3460     7.2730 hc         1 8X5       0.058950
     54 H25          9.0040     9.3700     5.8770 hc         1 8X5       0.058950
     55 H10         10.4200    10.5600     7.5430 h1         1 8X5       0.049450
@<TRIPOS>BOND
     1    23     1 ar  
     2    23    22 ar  
     3     1     2 ar  
     4    22    21 ar  
     5     2     3 ar  
     6    21     3 ar  
     7     3    20 1   
     8    18    17 2   
     9    20    19 1   
    10    17    19 1   
    11    17     7 1   
    12    19     4 1   
    13     8     7 1   
    14     8     9 2   
    15     7     6 2   
    16    11    12 ar  
    17    11    10 ar  
    18     9    10 1   
    19     9    24 1   
    20    12    26 ar  
    21     6     5 1   
    22     6    24 1   
    23    10    25 ar  
    24     4     5 1   
    25    26    13 ar  
    26    25    13 ar  
    27    13    27 1   
    28    27    28 1   
    29    28    16 1   
    30    28    30 1   
    31    16    15 1   
    32    15    29 1   
    33    30    14 1   
    34    14    29 1   
    35     1    31 1   
    36     2    32 1   
    37     4    33 1   
    38     4    34 1   
    39     5    35 1   
    40     5    36 1   
    41     8    37 1   
    42    11    38 1   
    43    12    39 1   
    44    14    55 1   
    45    14    40 1   
    46    15    41 1   
    47    15    42 1   
    48    16    43 1   
    49    16    44 1   
    50    20    45 1   
    51    20    46 1   
    52    21    47 1   
    53    22    48 1   
    54    23    49 1   
    55    24    50 1   
    56    27    51 1   
    57    28    52 1   
    58    30    53 1   
    59    30    54 1   
@<TRIPOS>SUBSTRUCTURE
     1 8X5         1 TEMP              0 ****  ****    0 ROOT
