@<TRIPOS>MOLECULE
molecule
   69    73     1     0     0
SMALL
bcc


@<TRIPOS>ATOM
      1 C01          0.0000     0.0000     0.0000 c3         1 8X7       0.153100
      2 N02          1.4690     0.0000     0.0000 n3         1 8X7      -0.734600
      3 C03          1.9960     0.0000     1.3710 c3         1 8X7       0.160800
      4 C04          3.5240     0.0810     1.3290 c3         1 8X7       0.164800
      5 N05          4.0510    -1.0580     0.5660 nh         1 8X7      -0.598000
      6 C06          3.5240    -1.0590    -0.8070 c3         1 8X7       0.164800
      7 C07          1.9960    -1.1390    -0.7640 c3         1 8X7       0.160800
      8 C08          5.4500    -1.0580     0.5650 ca         1 8X7       0.092600
      9 C09          6.1440    -0.0620     1.2400 ca         1 8X7      -0.151500
     10 C10          7.5240    -0.0620     1.2400 ca         1 8X7      -0.116500
     11 C11          8.2190    -1.0570     0.5660 ca         1 8X7       0.123600
     12 N12          9.6200    -1.0570     0.5650 nu         1 8X7      -0.741300
     13 C13         10.3100    -0.5830     1.6630 ca         1 8X7       0.989900
     14 N14          9.6260    -0.2100     2.7380 nb         1 8X7      -0.816000
     15 C15         10.2430     0.2500     3.8140 ca         1 8X7       0.590200
     16 C16         11.6320     0.3370     3.8000 ca         1 8X7      -0.524200
     17 C17         12.6460     0.7810     4.7660 c          1 8X7       0.735100
     18 O18         12.4410     1.2040     5.8870 o          1 8X7      -0.617500
     19 N19         13.8490     0.6310     4.1720 n          1 8X7      -0.357100
     20 C20         15.1400     0.9550     4.7830 c3         1 8X7       0.162200
     21 C21         15.4780     2.3980     4.5100 c2         1 8X7      -0.195200
     22 C22         15.7480     3.2070     5.5050 c2         1 8X7      -0.202000
     23 N23         13.6710     0.1170     2.8840 na         1 8X7      -0.191300
     24 C24         12.3280    -0.0680     2.6410 ca         1 8X7       0.625800
     25 N25         11.6340    -0.5210     1.6080 nb         1 8X7      -0.852000
     26 C26         14.6950    -0.1650     1.9830 ca         1 8X7       0.551800
     27 N27         15.9440     0.1500     2.2910 nb         1 8X7      -0.740000
     28 C28         16.9430    -0.0990     1.4670 ca         1 8X7       0.470600
     29 C29         16.7190    -0.7030     0.2450 ca         1 8X7      -0.249300
     30 C30         15.4240    -1.0500    -0.1160 ca         1 8X7      -0.069000
     31 C31         14.3980    -0.7800     0.7720 ca         1 8X7      -0.268300
     32 C32         18.3480     0.2790     1.8630 c3         1 8X7       0.103500
     33 C33         18.8690     1.3620     0.9170 c3         1 8X7      -0.114600
     34 C34         18.3450     0.8120     3.2970 c3         1 8X7      -0.114600
     35 O35         19.1920    -0.8710     1.7830 oh         1 8X7      -0.600800
     36 C36          7.5260    -2.0530    -0.1080 ca         1 8X7      -0.116500
     37 C37          6.1450    -2.0570    -0.1040 ca         1 8X7      -0.151500
     38 H011        -0.3610    -0.9010     0.4810 h1         1 8X7       0.032700
     39 H013        -0.3610     0.0340    -1.0210 h1         1 8X7       0.032700
     40 H012        -0.3610     0.8670     0.5400 h1         1 8X7       0.032700
     41 H031         1.6980    -0.9130     1.8720 h1         1 8X7       0.042700
     42 H032         1.6050     0.8560     1.9070 h1         1 8X7       0.042700
     43 H041         3.8220     1.0050     0.8480 h1         1 8X7       0.049450
     44 H042         3.9140     0.0500     2.3380 h1         1 8X7       0.049450
     45 H061         3.9150    -1.9160    -1.3420 h1         1 8X7       0.049450
     46 H062         3.8230    -0.1460    -1.3070 h1         1 8X7       0.049450
     47 H072         1.6980    -2.0640    -0.2850 h1         1 8X7       0.042700
     48 H071         1.6060    -1.1070    -1.7740 h1         1 8X7       0.042700
     49 H091         5.6020     0.7140     1.7660 ha         1 8X7       0.140000
     50 H101         8.0650     0.7150     1.7660 ha         1 8X7       0.146000
     51 H121        10.1200    -1.3760    -0.2410 hn         1 8X7       0.465800
     52 H151         9.6780     0.5520     4.6880 h4         1 8X7       0.048100
     53 H202        15.9090     0.3180     4.3630 h1         1 8X7       0.088700
     54 H201        15.0840     0.7930     5.8530 h1         1 8X7       0.088700
     55 H211        15.4980     2.7660     3.4920 ha         1 8X7       0.133000
     56 H221        15.9910     4.2440     5.3090 ha         1 8X7       0.116000
     57 H222        15.7280     2.8380     6.5230 ha         1 8X7       0.116000
     58 H291        17.5460    -0.9030    -0.4270 ha         1 8X7       0.152000
     59 H301        15.2230    -1.5260    -1.0680 ha         1 8X7       0.146000
     60 H311        13.3750    -1.0370     0.5240 ha         1 8X7       0.184000
     61 H331        19.7180     1.8590     1.3710 hc         1 8X7       0.047533
     62 H333        18.0860     2.0850     0.7290 hc         1 8X7       0.047533
     63 H332        19.1740     0.9080    -0.0180 hc         1 8X7       0.047533
     64 H342        17.9270     0.0640     3.9590 hc         1 8X7       0.047533
     65 H341        19.3610     1.0350     3.6010 hc         1 8X7       0.047533
     66 H343        17.7470     1.7140     3.3460 hc         1 8X7       0.047533
     67 H351        20.0480    -0.6560     2.1140 ho         1 8X7       0.410000
     68 H361         8.0680    -2.8310    -0.6320 ha         1 8X7       0.146000
     69 H371         5.6040    -2.8350    -0.6290 ha         1 8X7       0.140000
@<TRIPOS>BOND
     1     1     2 1
     2     2     3 1
     3     2     7 1
     4     3     4 1
     5     7     6 1
     6     4     5 1
     7     6     5 1
     8     5     8 1
     9     8    37 ar
    10     8     9 ar
    11    37    36 ar
    12     9    10 ar
    13    36    11 ar
    14    10    11 ar
    15    11    12 1
    16    12    13 1
    17    30    29 ar
    18    30    31 ar
    19    29    28 ar
    20    33    32 1
    21    13    25 ar
    22    13    14 ar
    23    31    26 ar
    24    25    24 ar
    25    28    32 1
    26    28    27 ar
    27    35    32 1
    28    32    34 1
    29    14    15 ar
    30    26    27 ar
    31    26    23 1
    32    24    23 1
    33    24    16 ar
    34    23    19 1
    35    15    16 ar
    36    16    17 1
    37    19    17 1
    38    19    20 1
    39    17    18 2
    40    20    21 1
    41    21    22 2
    42     1    38 1
    43     1    39 1
    44     1    40 1
    45     3    41 1
    46     3    42 1
    47     4    43 1
    48     4    44 1
    49     6    45 1
    50     6    46 1
    51     7    47 1
    52     7    48 1
    53     9    49 1
    54    10    50 1
    55    12    51 1
    56    15    52 1
    57    20    53 1
    58    20    54 1
    59    21    55 1
    60    22    56 1
    61    22    57 1
    62    29    58 1
    63    30    59 1
    64    31    60 1
    65    33    61 1
    66    33    62 1
    67    33    63 1
    68    34    64 1
    69    34    65 1
    70    34    66 1
    71    35    67 1
    72    36    68 1
    73    37    69 1
@<TRIPOS>SUBSTRUCTURE
     1 8X7         1 TEMP              0 ****  ****    0 ROOT
