@<TRIPOS>MOLECULE
molecule
   57    58     1     0     0
SMALL
bcc


@<TRIPOS>ATOM
      1 C2           0.0000     0.0000     0.0000 c3         1 8X8       0.178800
      2 C3           1.5310     0.0000     0.0000 c3         1 8X8      -0.106100
      3 C4          -0.5100     0.0000     1.4420 c3         1 8X8      -0.106100
      4 C5          -0.5090     1.2490    -0.7210 c3         1 8X8      -0.106100
      5 O1          -0.4840    -1.1850    -0.6860 os         1 8X8      -0.433900
      6 C36         -1.8180    -1.3370    -0.7740 c          1 8X8       0.751100
      7 O37         -2.5580    -0.5030    -0.2920 o          1 8X8      -0.614000
      8 N38         -2.3340    -2.4170    -1.3970 ns         1 8X8      -0.567900
      9 C40         -3.7810    -2.6390    -1.3990 c3         1 8X8       0.142700
     10 C42         -4.4030    -1.9380    -2.6080 c3         1 8X8      -0.081400
     11 C45         -5.9250    -2.0960    -2.5620 c3         1 8X8      -0.164700
     12 C47         -6.5120    -1.2420    -1.4590 c          1 8X8       0.701500
     13 O48         -6.0690    -1.1610    -0.3330 o          1 8X8      -0.626500
     14 N49         -7.5960    -0.5870    -1.9090 ns         1 8X8      -0.587900
     15 C51         -7.8700    -0.9120    -3.3140 c3         1 8X8       0.093000
     16 C54         -6.5660    -1.5390    -3.8540 c3         1 8X8      -0.091400
     17 C57         -4.0660    -4.1400    -1.4770 c3         1 8X8       0.058100
     18 O58         -3.5010    -4.6710    -2.6780 oh         1 8X8      -0.581800
     19 C66         -3.4530    -4.8310    -0.2860 c          1 8X8       0.629100
     20 O67         -2.5510    -5.6260    -0.4430 o          1 8X8      -0.596100
     21 N68         -3.9070    -4.5640     0.9550 ns         1 8X8      -0.579900
     22 C70         -3.3110    -5.2350     2.1130 c3         1 8X8       0.162300
     23 C73         -3.9930    -4.7650     3.3720 ca         1 8X8      -0.119300
     24 C74         -3.5100    -3.6600     4.0480 ca         1 8X8      -0.109500
     25 C76         -5.1050    -5.4350     3.8470 ca         1 8X8      -0.109500
     26 C78         -5.7310    -5.0040     5.0020 ca         1 8X8      -0.130000
     27 C80         -5.2440    -3.9020     5.6810 ca         1 8X8      -0.119000
     28 C82         -4.1350    -3.2290     5.2030 ca         1 8X8      -0.130000
     29 H1           1.8920     0.0040    -1.0210 hc         1 8X8       0.049256
     30 H2           1.8920     0.8820     0.5140 hc         1 8X8       0.049256
     31 H3           1.8920    -0.8870     0.5070 hc         1 8X8       0.049256
     32 H4           0.1020     0.6640     2.0410 hc         1 8X8       0.049256
     33 H5          -0.4540    -1.0040     1.8450 hc         1 8X8       0.049256
     34 H6          -1.5380     0.3400     1.4610 hc         1 8X8       0.049256
     35 H7           0.1500     2.0830    -0.5090 hc         1 8X8       0.049256
     36 H8          -0.5290     1.0670    -1.7890 hc         1 8X8       0.049256
     37 H9          -1.5090     1.4830    -0.3760 hc         1 8X8       0.049256
     38 H10         -1.7300    -3.0500    -1.8830 hn         1 8X8       0.342500
     39 H11         -4.2090    -2.2370    -0.4890 h1         1 8X8       0.120700
     40 H12         -4.0220    -2.3830    -3.5200 hc         1 8X8       0.069200
     41 H13         -4.1480    -0.8860    -2.5860 hc         1 8X8       0.069200
     42 H14         -6.2000    -3.1340    -2.4220 hc         1 8X8       0.072700
     43 H15         -8.1460     0.0410    -1.3570 hn         1 8X8       0.339500
     44 H16         -8.1080    -0.0100    -3.8660 h1         1 8X8       0.046200
     45 H17         -8.6830    -1.6250    -3.3800 h1         1 8X8       0.046200
     46 H18         -6.7840    -2.3390    -4.5510 hc         1 8X8       0.062200
     47 H19         -5.9330    -0.7840    -4.3040 hc         1 8X8       0.062200
     48 H20         -5.1370    -4.3050    -1.4780 h1         1 8X8       0.052700
     49 H21         -3.9470    -5.4680    -2.9090 ho         1 8X8       0.412000
     50 H22         -4.6780    -3.9390     1.0820 hn         1 8X8       0.326500
     51 H23         -2.2550    -4.9970     2.1640 h1         1 8X8       0.058700
     52 H24         -3.4350    -6.3070     2.0130 h1         1 8X8       0.058700
     53 H25         -2.6420    -3.1320     3.6730 ha         1 8X8       0.134500
     54 H26         -5.4860    -6.2980     3.3150 ha         1 8X8       0.134500
     55 H27         -6.6010    -5.5300     5.3770 ha         1 8X8       0.131500
     56 H28         -5.7340    -3.5640     6.5860 ha         1 8X8       0.130000
     57 H29         -3.7560    -2.3640     5.7340 ha         1 8X8       0.131500
@<TRIPOS>BOND
     1    13    12 2   
     2    12    14 1   
     3    12    11 1   
     4    14    15 1   
     5    10    11 1   
     6    10     9 1   
     7    11    16 1   
     8    20    19 2   
     9    17     9 1   
    10    17    19 1   
    11    17    18 1   
    12     9     8 1   
    13     8     6 1   
    14    15    16 1   
    15    19    21 1   
    16     2     1 1   
    17     5     6 1   
    18     5     1 1   
    19     6     7 2   
    20    21    22 1   
    21     1     3 1   
    22     1     4 1   
    23    22    23 1   
    24    23    25 ar  
    25    23    24 ar  
    26    25    26 ar  
    27    24    28 ar  
    28    26    27 ar  
    29    28    27 ar  
    30     2    29 1   
    31     2    30 1   
    32     2    31 1   
    33     3    32 1   
    34     3    33 1   
    35     3    34 1   
    36     4    35 1   
    37     4    36 1   
    38     4    37 1   
    39     8    38 1   
    40     9    39 1   
    41    10    40 1   
    42    10    41 1   
    43    11    42 1   
    44    14    43 1   
    45    15    44 1   
    46    15    45 1   
    47    16    46 1   
    48    16    47 1   
    49    17    48 1   
    50    18    49 1   
    51    21    50 1   
    52    22    51 1   
    53    22    52 1   
    54    24    53 1   
    55    25    54 1   
    56    26    55 1   
    57    27    56 1   
    58    28    57 1   
@<TRIPOS>SUBSTRUCTURE
     1 8X8         1 TEMP              0 ****  ****    0 ROOT
