@<TRIPOS>MOLECULE
8X8
   57    58     1     0     0
SMALL
bcc


@<TRIPOS>ATOM
      1 C2           0.0000     0.0000     0.0000 c3         1 8X8       0.195800
      2 C3           1.5310     0.0000     0.0000 c3         1 8X8      -0.030100
      3 C4          -0.5100     0.0000     1.4420 c3         1 8X8      -0.030100
      4 C5          -0.5090     1.2490    -0.7210 c3         1 8X8      -0.030100
      5 O1          -0.4840    -1.1850    -0.6860 os         1 8X8      -0.414900
      6 C36         -1.8180    -1.3370    -0.7740 c          1 8X8       0.680100
      7 O37         -2.5580    -0.5030    -0.2920 o          1 8X8      -0.660000
      8 N38         -2.3340    -2.4170    -1.3970 ns         1 8X8      -0.166900
      9 C40         -3.7810    -2.6390    -1.3990 c3         1 8X8       0.009700
     10 C42         -4.4030    -1.9380    -2.6080 c3         1 8X8      -0.026400
     11 C45         -5.9250    -2.0960    -2.5620 c3         1 8X8      -0.142700
     12 C47         -6.5120    -1.2420    -1.4590 c          1 8X8       0.620500
     13 O48         -6.0690    -1.1610    -0.3330 o          1 8X8      -0.663500
     14 N49         -7.5960    -0.5870    -1.9090 ns         1 8X8      -0.200900
     15 C51         -7.8700    -0.9120    -3.3140 c3         1 8X8       0.040000
     16 C54         -6.5660    -1.5390    -3.8540 c3         1 8X8      -0.027400
     17 C57         -4.0660    -4.1400    -1.4770 c3         1 8X8       0.103100
     18 O58         -3.5010    -4.6710    -2.6780 oh         1 8X8      -0.563800
     19 C66         -3.4530    -4.8310    -0.2860 c          1 8X8       0.533100
     20 O67         -2.5510    -5.6260    -0.4430 o          1 8X8      -0.634100
     21 N68         -3.9070    -4.5640     0.9550 ns         1 8X8      -0.190900
     22 C70         -3.3110    -5.2350     2.1130 c3         1 8X8       0.112300
     23 C73         -3.9930    -4.7650     3.3720 ca         1 8X8      -0.128300
     24 C74         -3.5100    -3.6600     4.0480 ca         1 8X8      -0.081000
     25 C76         -5.1050    -5.4350     3.8470 ca         1 8X8      -0.081000
     26 C78         -5.7310    -5.0040     5.0020 ca         1 8X8      -0.101500
     27 C80         -5.2440    -3.9020     5.6810 ca         1 8X8      -0.091000
     28 C82         -4.1350    -3.2290     5.2030 ca         1 8X8      -0.101500
     29 H1           1.8920     0.0040    -1.0210 hc         1 8X8       0.018589
     30 H2           1.8920     0.8820     0.5140 hc         1 8X8       0.018589
     31 H3           1.8920    -0.8870     0.5070 hc         1 8X8       0.018589
     32 H4           0.1020     0.6640     2.0410 hc         1 8X8       0.018589
     33 H5          -0.4540    -1.0040     1.8450 hc         1 8X8       0.018589
     34 H6          -1.5380     0.3400     1.4610 hc         1 8X8       0.018589
     35 H7           0.1500     2.0830    -0.5090 hc         1 8X8       0.018589
     36 H8          -0.5290     1.0670    -1.7890 hc         1 8X8       0.018589
     37 H9          -1.5090     1.4830    -0.3760 hc         1 8X8       0.018589
     38 H10         -1.7300    -3.0500    -1.8830 hn         1 8X8       0.196500
     39 H11         -4.2090    -2.2370    -0.4890 h1         1 8X8       0.101700
     40 H12         -4.0220    -2.3830    -3.5200 hc         1 8X8       0.037700
     41 H13         -4.1480    -0.8860    -2.5860 hc         1 8X8       0.037700
     42 H14         -6.2000    -3.1340    -2.4220 hc         1 8X8       0.049700
     43 H15         -8.1460     0.0410    -1.3570 hn         1 8X8       0.195500
     44 H16         -8.1080    -0.0100    -3.8660 h1         1 8X8       0.015200
     45 H17         -8.6830    -1.6250    -3.3800 h1         1 8X8       0.015200
     46 H18         -6.7840    -2.3390    -4.5510 hc         1 8X8       0.030700
     47 H19         -5.9330    -0.7840    -4.3040 hc         1 8X8       0.030700
     48 H20         -5.1370    -4.3050    -1.4780 h1         1 8X8       0.020700
     49 H21         -3.9470    -5.4680    -2.9090 ho         1 8X8       0.399000
     50 H22         -4.6780    -3.9390     1.0820 hn         1 8X8       0.189500
     51 H23         -2.2550    -4.9970     2.1640 h1         1 8X8       0.028700
     52 H24         -3.4350    -6.3070     2.0130 h1         1 8X8       0.028700
     53 H25         -2.6420    -3.1320     3.6730 ha         1 8X8       0.108000
     54 H26         -5.4860    -6.2980     3.3150 ha         1 8X8       0.108000
     55 H27         -6.6010    -5.5300     5.3770 ha         1 8X8       0.104500
     56 H28         -5.7340    -3.5640     6.5860 ha         1 8X8       0.102000
     57 H29         -3.7560    -2.3640     5.7340 ha         1 8X8       0.104500
@<TRIPOS>BOND
     1     1     2 1   
     2     1     3 1   
     3     1     4 1   
     4     1     5 1   
     5     2    29 1   
     6     2    30 1   
     7     2    31 1   
     8     3    32 1   
     9     3    33 1   
    10     3    34 1   
    11     4    35 1   
    12     4    36 1   
    13     4    37 1   
    14     5     6 1   
    15     6     7 2   
    16     6     8 1   
    17     8     9 1   
    18     8    38 1   
    19     9    10 1   
    20     9    17 1   
    21     9    39 1   
    22    10    11 1   
    23    10    40 1   
    24    10    41 1   
    25    11    12 1   
    26    11    16 1   
    27    11    42 1   
    28    12    13 2   
    29    12    14 1   
    30    14    15 1   
    31    14    43 1   
    32    15    16 1   
    33    15    44 1   
    34    15    45 1   
    35    16    46 1   
    36    16    47 1   
    37    17    18 1   
    38    17    19 1   
    39    17    48 1   
    40    18    49 1   
    41    19    20 2   
    42    19    21 1   
    43    21    22 1   
    44    21    50 1   
    45    22    23 1   
    46    22    51 1   
    47    22    52 1   
    48    23    24 ar  
    49    23    25 ar  
    50    24    28 ar  
    51    24    53 1   
    52    25    26 ar  
    53    25    54 1   
    54    26    27 ar  
    55    26    55 1   
    56    27    28 ar  
    57    27    56 1   
    58    28    57 1   
@<TRIPOS>SUBSTRUCTURE
     1 8X8         1 TEMP              0 ****  ****    0 ROOT
