@<TRIPOS>MOLECULE
8XA
   35    37     1     0     0
SMALL
bcc


@<TRIPOS>ATOM
      1 P            0.0000     0.0000     0.0000 p5         1 8XA       0.666900
      2 OP1          1.4800     0.0000     0.0000 o          1 8XA      -0.752500
      3 OP2         -0.5360     0.0000     1.5190 o          1 8XA      -0.752500
      4 O5'         -0.5370     1.3140    -0.7580 os         1 8XA      -0.470200
      5 C5'         -0.1490     1.6570    -2.0900 c3         1 8XA       0.283400
      6 C4'         -0.8390     2.9580    -2.5030 c3         1 8XA       0.157100
      7 O4'         -0.2970     4.0720    -1.7620 os         1 8XA      -0.350600
      8 C1'         -0.6240     5.2430    -2.5400 c3         1 8XA       0.127800
      9 N9           0.2590     6.3570    -2.1830 na         1 8XA       0.239000
     10 C4          -0.0130     7.6920    -2.3440 ca         1 8XA       0.253800
     11 N3          -1.0380     8.3910    -2.8200 nb         1 8XA      -0.652000
     12 C2          -1.0020     9.7060    -2.8420 ca         1 8XA       0.653900
     13 N1           0.0370    10.3940    -2.4030 nb         1 8XA      -0.767000
     14 C6           1.1090     9.7810    -1.9090 ca         1 8XA       0.581200
     15 N6           2.1910    10.5110    -1.4510 nv         1 8XA      -0.509500
     16 C5           1.1160     8.3780    -1.8630 ca         1 8XA      -0.235200
     17 N7           2.0020     7.4420    -1.4430 nc         1 8XA      -0.543100
     18 C8           1.4990     6.2560    -1.6250 cd         1 8XA       0.298700
     19 C2'         -0.3890     4.8210    -4.0070 c3         1 8XA       0.101100
     20 O2'         -1.3740     5.4050    -4.8620 oh         1 8XA      -0.577800
     21 C3'         -0.5340     3.2830    -3.9830 c3         1 8XA       0.122100
     22 O3'          0.6850     2.6580    -4.3910 oh         1 8XA      -0.545800
     23 O1          -0.5370    -1.3150    -0.7570 o          1 8XA      -0.752500
     24 H5'         -0.4410     0.8630    -2.7670 h1         1 8XA      -0.010300
     25 H5''         0.9250     1.7890    -2.1310 h1         1 8XA      -0.010300
     26 H4'         -1.9090     2.8900    -2.3480 h1         1 8XA       0.024700
     27 H1'         -1.6620     5.5150    -2.3900 h2         1 8XA       0.054700
     28 H2          -1.8550    10.2450    -3.2370 h5         1 8XA      -0.016900
     29 H61          2.1730    11.5110    -1.4900 hn         1 8XA       0.269800
     30 H62          2.9930    10.0390    -1.0820 hn         1 8XA       0.269800
     31 H8           1.9910     5.3260    -1.3690 h5         1 8XA       0.067800
     32 H2'          0.6090     5.1000    -4.3240 h1         1 8XA       0.020700
     33 HO2'        -0.9970     5.5710    -5.7090 ho         1 8XA       0.378000
     34 H3'         -1.3570     2.9720    -4.6140 h1         1 8XA       0.012700
     35 H3           0.6020     2.3610    -5.2820 ho         1 8XA       0.365000
@<TRIPOS>BOND
     1     1     2 1   
     2     1     3 1   
     3     1     4 1   
     4     1    23 1   
     5     4     5 1   
     6     5     6 1   
     7     5    24 1   
     8     5    25 1   
     9     6     7 1   
    10     6    21 1   
    11     6    26 1   
    12     7     8 1   
    13     8     9 1   
    14     8    19 1   
    15     8    27 1   
    16     9    10 1   
    17     9    18 1   
    18    10    11 ar  
    19    10    16 ar  
    20    11    12 ar  
    21    12    13 ar  
    22    12    28 1   
    23    13    14 ar  
    24    14    15 1   
    25    14    16 ar  
    26    15    29 1   
    27    15    30 1   
    28    16    17 1   
    29    17    18 2   
    30    18    31 1   
    31    19    20 1   
    32    19    21 1   
    33    19    32 1   
    34    20    33 1   
    35    21    22 1   
    36    21    34 1   
    37    22    35 1   
@<TRIPOS>SUBSTRUCTURE
     1 8XA         1 TEMP              0 ****  ****    0 ROOT
