@<TRIPOS>MOLECULE
8XB
   54    57     1     0     0
SMALL
bcc


@<TRIPOS>ATOM
      1 C1           0.0000     0.0000     0.0000 c          1 8XB       0.699100
      2 C2           1.4730     0.0000     0.0000 cc         1 8XB      -0.251600
      3 C3           2.4060     0.0000     1.0440 cc         1 8XB      -0.018000
      4 N6           7.8390    -2.1750     5.9270 na         1 8XB       0.453400
      5 C7           0.1260    -0.7150    -2.3570 c3         1 8XB       0.035700
      6 C8           0.3720    -2.2210    -2.2440 c3         1 8XB      -0.028100
      7 C9           1.4720    -0.0080    -2.5240 c3         1 8XB       0.072900
      8 C10          2.1850    -0.0010    -1.1960 cd         1 8XB      -0.317600
      9 C11          3.6430     0.0010     0.4660 cd         1 8XB      -0.448800
     10 C12          4.9310     0.0030     1.1870 ca         1 8XB       0.575800
     11 C13          6.0090     0.7620     0.7160 ca         1 8XB      -0.406900
     12 C14          5.8790     1.5940    -0.5340 c3         1 8XB       0.079200
     13 C15          6.2400    -0.7150     2.9450 ca         1 8XB       0.703900
     14 C16          7.1950     0.7320     1.4240 ca         1 8XB       0.491200
     15 C19          9.6820    -1.0940     5.4140 cc         1 8XB       0.407200
     16 C20          8.7060    -0.8050     4.4560 cc         1 8XB      -0.374300
     17 O1          -0.6390     0.2360     1.0070 o          1 8XB      -0.686500
     18 N1          -0.6070    -0.2690    -1.1800 n          1 8XB      -0.148800
     19 C4          -2.0590    -0.1050    -1.2770 c3         1 8XB       0.044000
     20 C5          -2.3840     1.3230    -1.7180 c3         1 8XB       0.186400
     21 O2          -1.8900     1.5380    -3.0410 os         1 8XB      -0.430600
     22 C6          -2.1420     2.8490    -3.5500 c3         1 8XB       0.255700
     23 N2           3.4860     0.0020    -0.9040 na         1 8XB       0.475900
     24 N3           5.0860    -0.7160     2.2990 nb         1 8XB      -0.668000
     25 N4           7.2780    -0.0090     2.5180 nb         1 8XB      -0.671000
     26 N5           6.3680    -1.4730     4.0990 nu         1 8XB      -0.244300
     27 C17          7.5760    -1.4850     4.7940 cd         1 8XB      -0.150700
     28 N7           9.1650    -1.9120     6.2950 nd         1 8XB      -0.656800
     29 H1           2.1920    -0.1860     2.0890 ha         1 8XB       0.144000
     30 H2          -0.4770    -0.5210    -3.2350 h1         1 8XB       0.050700
     31 H3          -0.5410    -2.7540    -2.4830 hc         1 8XB       0.012367
     32 H4           0.6770    -2.4630    -1.2330 hc         1 8XB       0.012367
     33 H5           1.1520    -2.5130    -2.9370 hc         1 8XB       0.012367
     34 H6           1.2820     1.0190    -2.8120 hc         1 8XB       0.030200
     35 H7           2.0690    -0.5750    -3.2270 hc         1 8XB       0.030200
     36 H8           5.9060     0.9470    -1.4030 hc         1 8XB       0.007700
     37 H9           6.6980     2.3010    -0.5840 hc         1 8XB       0.007700
     38 H10          4.9380     2.1310    -0.5140 hc         1 8XB       0.007700
     39 H11          8.0490     1.3060     1.0860 h4         1 8XB      -0.013900
     40 H12         10.6930    -0.7050     5.4260 h4         1 8XB       0.001100
     41 H13          8.8270    -0.1560     3.5960 ha         1 8XB       0.189000
     42 H14         -2.5090    -0.2960    -0.3100 h1         1 8XB       0.039700
     43 H15         -2.4530    -0.8060    -2.0030 h1         1 8XB       0.039700
     44 H16         -3.4580     1.4700    -1.7050 h1         1 8XB       0.003200
     45 H17         -1.9160     2.0260    -1.0390 h1         1 8XB       0.003200
     46 H18         -1.7150     2.9390    -4.5410 h1         1 8XB      -0.012633
     47 H19         -1.6910     3.5830    -2.8940 h1         1 8XB      -0.012633
     48 H20         -3.2110     3.0170    -3.6000 h1         1 8XB      -0.012633
     49 H21          4.2300     0.0020    -1.5730 hn         1 8XB       0.113700
     50 H22          5.5900    -2.0010     4.4400 hn         1 8XB       0.286800
     51 H23          6.5270    -3.8040     5.9630 h1         1 8XB       0.019367
     52 H24          6.0780    -2.4590     7.0210 h1         1 8XB       0.019367
     53 H25          7.4160    -3.5260     7.4670 h1         1 8XB       0.019367
     54 C18          6.9040    -3.0480     6.6410 c3         1 8XB       0.024600
@<TRIPOS>BOND
     1     1     2 1   
     2     1    17 2   
     3     1    18 1   
     4     2     3 1   
     5     2     8 2   
     6     3     9 2   
     7     3    29 1   
     8     4    27 1   
     9     4    28 1   
    10     4    54 1   
    11     5     6 1   
    12     5     7 1   
    13     5    18 1   
    14     5    30 1   
    15     6    31 1   
    16     6    32 1   
    17     6    33 1   
    18     7     8 1   
    19     7    34 1   
    20     7    35 1   
    21     8    23 1   
    22     9    10 1   
    23     9    23 1   
    24    10    11 ar  
    25    10    24 ar  
    26    11    12 1   
    27    11    14 ar  
    28    12    36 1   
    29    12    37 1   
    30    12    38 1   
    31    13    24 ar  
    32    13    25 ar  
    33    13    26 1   
    34    14    25 ar  
    35    14    39 1   
    36    15    16 1   
    37    15    28 2   
    38    15    40 1   
    39    16    27 2   
    40    16    41 1   
    41    18    19 1   
    42    19    20 1   
    43    19    42 1   
    44    19    43 1   
    45    20    21 1   
    46    20    44 1   
    47    20    45 1   
    48    21    22 1   
    49    22    46 1   
    50    22    47 1   
    51    22    48 1   
    52    23    49 1   
    53    26    27 1   
    54    26    50 1   
    55    51    54 1   
    56    52    54 1   
    57    53    54 1   
@<TRIPOS>SUBSTRUCTURE
     1 8XB         1 TEMP              0 ****  ****    0 ROOT
