@<TRIPOS>MOLECULE
molecule
   54    57     1     0     0
SMALL
bcc


@<TRIPOS>ATOM
      1 C1           0.0000     0.0000     0.0000 c          1 8XB       0.753100
      2 C2           1.4730     0.0000     0.0000 cc         1 8XB      -0.243600
      3 C3           2.4060     0.0000     1.0440 cc         1 8XB      -0.062000
      4 N6           7.8390    -2.1750     5.9270 na         1 8XB       0.037400
      5 C7           0.1260    -0.7150    -2.3570 c3         1 8XB       0.126700
      6 C8           0.3720    -2.2210    -2.2440 c3         1 8XB      -0.117100
      7 C9           1.4720    -0.0080    -2.5240 c3         1 8XB      -0.019100
      8 C10          2.1850    -0.0010    -1.1960 cd         1 8XB      -0.081600
      9 C11          3.6430     0.0010     0.4660 cd         1 8XB      -0.228800
     10 C12          4.9310     0.0030     1.1870 ca         1 8XB       0.597800
     11 C13          6.0090     0.7620     0.7160 ca         1 8XB      -0.390900
     12 C14          5.8790     1.5940    -0.5340 c3         1 8XB      -0.034800
     13 C15          6.2400    -0.7150     2.9450 ca         1 8XB       0.948900
     14 C16          7.1950     0.7320     1.4240 ca         1 8XB       0.500200
     15 C19          9.6820    -1.0940     5.4140 cd         1 8XB       0.340200
     16 C20          8.7060    -0.8050     4.4560 cd         1 8XB      -0.368300
     17 O1          -0.6390     0.2360     1.0070 o          1 8XB      -0.643500
     18 N1          -0.6070    -0.2690    -1.1800 n          1 8XB      -0.486800
     19 C4          -2.0590    -0.1050    -1.2770 c3         1 8XB       0.111000
     20 C5          -2.3840     1.3230    -1.7180 c3         1 8XB       0.112400
     21 O2          -1.8900     1.5380    -3.0410 os         1 8XB      -0.441600
     22 C6          -2.1420     2.8490    -3.5500 c3         1 8XB       0.129700
     23 N2           3.4860     0.0020    -0.9040 na         1 8XB      -0.117100
     24 N3           5.0860    -0.7160     2.2990 nb         1 8XB      -0.777000
     25 N4           7.2780    -0.0090     2.5180 nb         1 8XB      -0.777000
     26 N5           6.3680    -1.4730     4.0990 nu         1 8XB      -0.732300
     27 C17          7.5760    -1.4850     4.7940 cc         1 8XB       0.161300
     28 N7           9.1650    -1.9120     6.2950 nc         1 8XB      -0.516800
     29 H1           2.1920    -0.1860     2.0890 ha         1 8XB       0.177000
     30 H2          -0.4770    -0.5210    -3.2350 h1         1 8XB       0.079700
     31 H3          -0.5410    -2.7540    -2.4830 hc         1 8XB       0.044033
     32 H4           0.6770    -2.4630    -1.2330 hc         1 8XB       0.044033
     33 H5           1.1520    -2.5130    -2.9370 hc         1 8XB       0.044033
     34 H6           1.2820     1.0190    -2.8120 hc         1 8XB       0.067700
     35 H7           2.0690    -0.5750    -3.2270 hc         1 8XB       0.067700
     36 H8           5.9060     0.9470    -1.4030 hc         1 8XB       0.043033
     37 H9           6.6980     2.3010    -0.5840 hc         1 8XB       0.043033
     38 H10          4.9380     2.1310    -0.5140 hc         1 8XB       0.043033
     39 H11          8.0490     1.3060     1.0860 h4         1 8XB       0.032100
     40 H12         10.6930    -0.7050     5.4260 h4         1 8XB       0.046100
     41 H13          8.8270    -0.1560     3.5960 ha         1 8XB       0.200000
     42 H14         -2.5090    -0.2960    -0.3100 h1         1 8XB       0.069200
     43 H15         -2.4530    -0.8060    -2.0030 h1         1 8XB       0.069200
     44 H16         -3.4580     1.4700    -1.7050 h1         1 8XB       0.036700
     45 H17         -1.9160     2.0260    -1.0390 h1         1 8XB       0.036700
     46 H18         -1.7150     2.9390    -4.5410 h1         1 8XB       0.030033
     47 H19         -1.6910     3.5830    -2.8940 h1         1 8XB       0.030033
     48 H20         -3.2110     3.0170    -3.6000 h1         1 8XB       0.030033
     49 H21          4.2300     0.0020    -1.5730 hn         1 8XB       0.301700
     50 H22          5.5900    -2.0010     4.4400 hn         1 8XB       0.465800
     51 H23          6.5270    -3.8040     5.9630 h1         1 8XB       0.052367
     52 H24          6.0780    -2.4590     7.0210 h1         1 8XB       0.052367
     53 H25          7.4160    -3.5260     7.4670 h1         1 8XB       0.052367
     54 C18          6.9040    -3.0480     6.6410 c3         1 8XB       0.060600
@<TRIPOS>BOND
     1    22    21 1   
     2    21    20 1   
     3    17     1 2   
     4    20    19 1   
     5    12    11 1   
     6     1     2 1   
     7     1    18 1   
     8     3     2 1   
     9     3     9 2   
    10    19    18 1   
    11    11    14 ar  
    12    11    10 ar  
    13     2     8 2   
    14    14    25 ar  
    15    18     5 1   
    16     9    10 1   
    17     9    23 1   
    18    10    24 ar  
    19     8    23 1   
    20     8     7 1   
    21    25    13 ar  
    22    24    13 ar  
    23    13    26 1   
    24     7     5 1   
    25     5     6 1   
    26    26    27 1   
    27    54     4 1   
    28    27     4 1   
    29    27    16 2   
    30     4    28 1   
    31    16    15 1   
    32    28    15 2   
    33     3    29 1   
    34     5    30 1   
    35     6    31 1   
    36     6    32 1   
    37     6    33 1   
    38     7    34 1   
    39     7    35 1   
    40    12    36 1   
    41    12    37 1   
    42    12    38 1   
    43    14    39 1   
    44    15    40 1   
    45    16    41 1   
    46    19    42 1   
    47    19    43 1   
    48    20    44 1   
    49    20    45 1   
    50    22    46 1   
    51    22    47 1   
    52    22    48 1   
    53    23    49 1   
    54    26    50 1   
    55    54    51 1   
    56    54    52 1   
    57    54    53 1   
@<TRIPOS>SUBSTRUCTURE
     1 8XB         1 TEMP              0 ****  ****    0 ROOT
