@<TRIPOS>MOLECULE
molecule
   34    35     1     0     0
SMALL
bcc


@<TRIPOS>ATOM
      1 P            0.0000     0.0000     0.0000 p5         1 8XC       1.200900
      2 OP1          1.6090     0.0000     0.0000 o          1 8XC      -0.726167
      3 OP2         -0.5370     0.0000     1.5170 o          1 8XC      -0.726167
      4 O5'         -0.5370     1.3130    -0.7590 os         1 8XC      -0.585200
      5 C5'         -1.9220     1.5520    -1.0170 c3         1 8XC       0.233400
      6 C4'         -2.0820     2.8860    -1.7520 c3         1 8XC       0.137100
      7 O4'         -1.5620     2.7850    -3.0960 os         1 8XC      -0.350600
      8 C1'         -2.1870     3.8630    -3.8270 c3         1 8XC       0.295500
      9 N1          -2.1430     3.5950    -5.2660 n          1 8XC      -0.341000
     10 C6          -1.6170     4.5240    -6.1130 cc         1 8XC       0.040600
     11 C2          -2.6170     2.4290    -5.7450 c          1 8XC       0.828900
     12 O2          -3.0800     1.6070    -4.9720 o          1 8XC      -0.566500
     13 N3          -2.5890     2.1600    -7.0490 nc         1 8XC      -0.717100
     14 C4          -2.0920     3.0370    -7.9110 cd         1 8XC       0.372500
     15 N4          -2.0670     2.7480    -9.2560 nz         1 8XC      -0.690600
     16 C5          -1.5820     4.2650    -7.4410 cd         1 8XC      -0.384600
     17 C2'         -3.6490     3.8820    -3.3270 c3         1 8XC       0.065100
     18 O2'         -4.1260     5.2250    -3.2280 oh         1 8XC      -0.616800
     19 C3'         -3.5780     3.2250    -1.9310 c3         1 8XC       0.100100
     20 O3'         -4.3690     2.0350    -1.8970 oh         1 8XC      -0.561800
     21 O1          -0.4930    -1.2090    -0.6980 o          1 8XC      -0.726167
     22 H5''        -2.3180     0.7520    -1.6310 h1         1 8XC       0.049200
     23 H5'         -2.4630     1.5900    -0.0790 h1         1 8XC       0.049200
     24 H4'         -1.5790     3.6810    -1.2150 h1         1 8XC       0.058700
     25 H1'         -1.7010     4.8030    -3.5970 h2         1 8XC       0.067700
     26 H6          -1.2320     5.4610    -5.7280 h4         1 8XC       0.162000
     27 H41         -2.4760     1.8470    -9.4110 hn         1 8XC       0.431133
     28 H42         -2.5880     3.4410    -9.7560 hn         1 8XC       0.431133
     29 H5          -1.1710     4.9900    -8.1320 ha         1 8XC       0.121000
     30 H2'         -4.2800     3.2980    -3.9860 h1         1 8XC       0.083700
     31 HO2'        -5.0080     5.2710    -3.5590 ho         1 8XC       0.399000
     32 H3'         -3.9000     3.9240    -1.1690 h1         1 8XC       0.047700
     33 HO3'        -5.1780     2.2080    -1.4460 ho         1 8XC       0.388000
     34 H43         -1.1200     2.7320    -9.5770 hn         1 8XC       0.431133
@<TRIPOS>BOND
     1     2     1 1
     2     1     4 1
     3     1     3 1
     4     4     5 1
     5    18    17 1
     6     6    19 1
     7     6     5 1
     8     6     7 1
     9    19    17 1
    10    19    20 1
    11    17     8 1
    12     7     8 1
    13     8     9 1
    14     9    10 1
    15     9    11 1
    16    12    11 2
    17    10    16 2
    18    11    13 1
    19    16    14 1
    20    13    14 2
    21    14    15 1
    22     1    21 1
    23     5    22 1
    24     5    23 1
    25     6    24 1
    26     8    25 1
    27    10    26 1
    28    15    27 1
    29    15    28 1
    30    16    29 1
    31    17    30 1
    32    18    31 1
    33    19    32 1
    34    20    33 1
    35    34    15 1
@<TRIPOS>SUBSTRUCTURE
     1 8XC         1 TEMP              0 ****  ****    0 ROOT
