@<TRIPOS>MOLECULE
molecule
   48    51     1     0     0
SMALL
bcc


@<TRIPOS>ATOM
      1 C1           0.0000     0.0000     0.0000 cc         1 8XE       0.160300
      2 C2           1.3620     0.0000     0.0000 cd         1 8XE      -0.366300
      3 C3           1.7900     0.0000     1.3300 cd         1 8XE       0.340200
      4 N6          -4.6810    -0.2670    -9.0720 n          1 8XE      -0.501800
      5 C7          -0.5580    -0.0080    -4.6810 ca         1 8XE       0.606800
      6 C8          -1.4490    -0.0060    -5.8570 cd         1 8XE      -0.234800
      7 C9          -2.8130    -0.0070    -5.8250 cc         1 8XE      -0.049000
      8 C10         -3.2490    -0.0050    -7.1550 cc         1 8XE      -0.237600
      9 C11         -2.1170    -0.0050    -7.9650 cd         1 8XE      -0.080600
     10 C12         -2.2370    -0.0100    -9.4670 c3         1 8XE      -0.029100
     11 C13         -3.5380    -0.7130    -9.8560 c3         1 8XE       0.123000
     12 C14         -4.5980     0.0000    -7.7470 c          1 8XE       0.752100
     13 C16         -6.7560    -1.4050    -9.6870 c3         1 8XE       0.116400
     14 O           -5.5880     0.2320    -7.0790 o          1 8XE      -0.608500
     15 O1          -7.0760    -1.7100    -8.3280 os         1 8XE      -0.399600
     16 C17         -7.8130    -2.9230    -8.1630 c3         1 8XE       0.127700
     17 N5          -1.0420    -0.0050    -7.1770 na         1 8XE      -0.117100
     18 C6           0.8340    -0.0010    -4.8410 ca         1 8XE      -0.448600
     19 C5           1.6270     0.0030    -3.7100 ca         1 8XE       0.504200
     20 N3           1.0540     0.0020    -2.5160 nb         1 8XE      -0.785000
     21 N4          -1.0640    -0.0080    -3.4480 nb         1 8XE      -0.787000
     22 C4          -0.2650    -0.0040    -2.3920 ca         1 8XE       0.957900
     23 N2          -0.8240    -0.0050    -1.1240 nu         1 8XE      -0.731300
     24 N1           0.7330    -0.0010     2.1020 nc         1 8XE      -0.516800
     25 N           -0.4080    -0.0010     1.2900 na         1 8XE       0.038400
     26 C           -1.7970    -0.0000     1.7550 c3         1 8XE       0.060600
     27 H1           2.0000     0.0000    -0.8750 ha         1 8XE       0.200000
     28 H2           2.8200     0.0000     1.6650 h4         1 8XE       0.046100
     29 H3          -3.4290     0.1710    -4.9520 ha         1 8XE       0.183000
     30 H4          -1.3960    -0.5400    -9.8960 hc         1 8XE       0.060700
     31 H5          -2.2550     1.0100    -9.8320 hc         1 8XE       0.060700
     32 H6          -3.4050    -1.7710    -9.6640 h1         1 8XE       0.050200
     33 H7          -3.7410    -0.4730   -10.8920 h1         1 8XE       0.050200
     34 H8          -5.8040     0.1830   -10.7780 h1         1 8XE       0.064700
     35 H9          -6.5340     0.6870    -9.2470 h1         1 8XE       0.064700
     36 H10         -6.1540    -2.2040   -10.1040 h1         1 8XE       0.022200
     37 H11         -7.6690    -1.3040   -10.2600 h1         1 8XE       0.022200
     38 H12         -7.2330    -3.7530    -8.5490 h1         1 8XE       0.027367
     39 H13         -8.7490    -2.8540    -8.7050 h1         1 8XE       0.027367
     40 H14         -8.0160    -3.0830    -7.1110 h1         1 8XE       0.027367
     41 H15         -0.0920    -0.0040    -7.4910 hn         1 8XE       0.297700
     42 H16          1.2790    -0.0000    -5.8290 ha         1 8XE       0.133000
     43 H17          2.7070     0.0090    -3.7990 h4         1 8XE       0.030100
     44 H18         -1.8190     0.0050    -1.0150 hn         1 8XE       0.466800
     45 H19         -2.3010     0.8850     1.3860 h1         1 8XE       0.052367
     46 H20         -2.3030    -0.8840     1.3840 h1         1 8XE       0.052367
     47 H21         -1.8160    -0.0020     2.8380 h1         1 8XE       0.052367
     48 C15         -5.9710    -0.0930    -9.7440 c3         1 8XE       0.113000
@<TRIPOS>BOND
     1    16    15 1
     2    15    13 1
     3    13    48 1
     4    14    12 2
     5     7     8 1
     6     7     6 2
     7    12     8 1
     8    12     4 1
     9    18    19 ar
    10    18     5 ar
    11    48     4 1
    12    19    20 ar
    13     8     9 2
    14     4    11 1
    15     6     5 1
    16     6    17 1
    17     5    21 ar
    18    20    22 ar
    19    11    10 1
    20     9    17 1
    21     9    10 1
    22    21    22 ar
    23    22    23 1
    24    23     1 1
    25    26    25 1
    26     1    25 1
    27     1     2 2
    28    25    24 1
    29     2     3 1
    30    24     3 2
    31     2    27 1
    32     3    28 1
    33     7    29 1
    34    10    30 1
    35    10    31 1
    36    11    32 1
    37    11    33 1
    38    48    34 1
    39    48    35 1
    40    13    36 1
    41    13    37 1
    42    16    38 1
    43    16    39 1
    44    16    40 1
    45    17    41 1
    46    18    42 1
    47    19    43 1
    48    23    44 1
    49    26    45 1
    50    26    46 1
    51    26    47 1
@<TRIPOS>SUBSTRUCTURE
     1 8XE         1 TEMP              0 ****  ****    0 ROOT
