@<TRIPOS>MOLECULE
8XE
   48    51     1     0     0
SMALL
bcc


@<TRIPOS>ATOM
      1 C1           0.0000     0.0000     0.0000 cc         1 8XE      -0.152700
      2 C2           1.3620     0.0000     0.0000 cd         1 8XE      -0.372300
      3 C3           1.7900     0.0000     1.3300 cd         1 8XE       0.406200
      4 N6          -4.6810    -0.2670    -9.0720 n          1 8XE      -0.172800
      5 C7          -0.5580    -0.0080    -4.6810 ca         1 8XE       0.584800
      6 C8          -1.4490    -0.0060    -5.8570 cc         1 8XE      -0.455800
      7 C9          -2.8130    -0.0070    -5.8250 cd         1 8XE      -0.007000
      8 C10         -3.2490    -0.0050    -7.1550 cd         1 8XE      -0.246600
      9 C11         -2.1170    -0.0050    -7.9650 cc         1 8XE      -0.317600
     10 C12         -2.2370    -0.0100    -9.4670 c3         1 8XE       0.067900
     11 C13         -3.5380    -0.7130    -9.8560 c3         1 8XE       0.069000
     12 C14         -4.5980     0.0000    -7.7470 c          1 8XE       0.696100
     13 C16         -6.7560    -1.4050    -9.6870 c3         1 8XE       0.187400
     14 O           -5.5880     0.2320    -7.0790 o          1 8XE      -0.653500
     15 O1          -7.0760    -1.7100    -8.3280 os         1 8XE      -0.385600
     16 C17         -7.8130    -2.9230    -8.1630 c3         1 8XE       0.248700
     17 N5          -1.0420    -0.0050    -7.1770 na         1 8XE       0.485900
     18 C6           0.8340    -0.0010    -4.8410 ca         1 8XE      -0.438600
     19 C5           1.6270     0.0030    -3.7100 ca         1 8XE       0.499200
     20 N3           1.0540     0.0020    -2.5160 nb         1 8XE      -0.682000
     21 N4          -1.0640    -0.0080    -3.4480 nb         1 8XE      -0.676000
     22 C4          -0.2650    -0.0040    -2.3920 ca         1 8XE       0.713900
     23 N2          -0.8240    -0.0050    -1.1240 nu         1 8XE      -0.242300
     24 N1           0.7330    -0.0010     2.1020 nc         1 8XE      -0.656800
     25 N           -0.4080    -0.0010     1.2900 na         1 8XE       0.455400
     26 C           -1.7970    -0.0000     1.7550 c3         1 8XE       0.023600
     27 H1           2.0000     0.0000    -0.8750 ha         1 8XE       0.189000
     28 H2           2.8200     0.0000     1.6650 h4         1 8XE       0.001100
     29 H3          -3.4290     0.1710    -4.9520 ha         1 8XE       0.148000
     30 H4          -1.3960    -0.5400    -9.8960 hc         1 8XE       0.020700
     31 H5          -2.2550     1.0100    -9.8320 hc         1 8XE       0.020700
     32 H6          -3.4050    -1.7710    -9.6640 h1         1 8XE       0.019200
     33 H7          -3.7410    -0.4730   -10.8920 h1         1 8XE       0.019200
     34 H8          -5.8040     0.1830   -10.7780 h1         1 8XE       0.034200
     35 H9          -6.5340     0.6870    -9.2470 h1         1 8XE       0.034200
     36 H10         -6.1540    -2.2040   -10.1040 h1         1 8XE      -0.010300
     37 H11         -7.6690    -1.3040   -10.2600 h1         1 8XE      -0.010300
     38 H12         -7.2330    -3.7530    -8.5490 h1         1 8XE      -0.014967
     39 H13         -8.7490    -2.8540    -8.7050 h1         1 8XE      -0.014967
     40 H14         -8.0160    -3.0830    -7.1110 h1         1 8XE      -0.014967
     41 H15         -0.0920    -0.0040    -7.4910 hn         1 8XE       0.104700
     42 H16          1.2790    -0.0000    -5.8290 ha         1 8XE       0.116000
     43 H17          2.7070     0.0090    -3.7990 h4         1 8XE      -0.017900
     44 H18         -1.8190     0.0050    -1.0150 hn         1 8XE       0.287800
     45 H19         -2.3010     0.8850     1.3860 h1         1 8XE       0.019367
     46 H20         -2.3030    -0.8840     1.3840 h1         1 8XE       0.019367
     47 H21         -1.8160    -0.0020     2.8380 h1         1 8XE       0.019367
     48 C15         -5.9710    -0.0930    -9.7440 c3         1 8XE       0.051000
@<TRIPOS>BOND
     1     1     2 2   
     2     1    23 1   
     3     1    25 1   
     4     2     3 1   
     5     2    27 1   
     6     3    24 2   
     7     3    28 1   
     8     4    11 1   
     9     4    12 1   
    10     4    48 1   
    11     5     6 1   
    12     5    18 ar  
    13     5    21 ar  
    14     6     7 2   
    15     6    17 1   
    16     7     8 1   
    17     7    29 1   
    18     8     9 2   
    19     8    12 1   
    20     9    10 1   
    21     9    17 1   
    22    10    11 1   
    23    10    30 1   
    24    10    31 1   
    25    11    32 1   
    26    11    33 1   
    27    12    14 2   
    28    13    15 1   
    29    13    36 1   
    30    13    37 1   
    31    13    48 1   
    32    15    16 1   
    33    16    38 1   
    34    16    39 1   
    35    16    40 1   
    36    17    41 1   
    37    18    19 ar  
    38    18    42 1   
    39    19    20 ar  
    40    19    43 1   
    41    20    22 ar  
    42    21    22 ar  
    43    22    23 1   
    44    23    44 1   
    45    24    25 1   
    46    25    26 1   
    47    26    45 1   
    48    26    46 1   
    49    26    47 1   
    50    34    48 1   
    51    35    48 1   
@<TRIPOS>SUBSTRUCTURE
     1 8XE         1 TEMP              0 ****  ****    0 ROOT
