@<TRIPOS>MOLECULE
molecule
   37    39     1     0     0
SMALL
bcc


@<TRIPOS>ATOM
      1 P            0.0000     0.0000     0.0000 p5         1 8XG       1.195900
      2 OP1          1.6090     0.0000     0.0000 o          1 8XG      -0.728167
      3 OP2         -0.5370     0.0000     1.5180 o          1 8XG      -0.728167
      4 O5'         -0.5370     1.3140    -0.7590 os         1 8XG      -0.580200
      5 C5'         -1.9230     1.5530    -1.0170 c3         1 8XG       0.230400
      6 C4'         -2.0830     2.8860    -1.7500 c3         1 8XG       0.140100
      7 O4'         -1.5440     2.7990    -3.0870 os         1 8XG      -0.366600
      8 C1'         -2.1580     3.8460    -3.8570 c3         1 8XG       0.249800
      9 N9          -2.3460     3.4030    -5.2390 na         1 8XG      -0.187900
     10 C4          -2.4600     4.2090    -6.3400 cc         1 8XG       0.060800
     11 N3          -2.4420     5.5330    -6.5310 nd         1 8XG      -0.609100
     12 C2          -2.5770     6.0470    -7.7340 cc         1 8XG       0.255800
     13 N2          -2.5530     7.4110    -7.8810 nz         1 8XG      -0.672600
     14 N1          -2.7400     5.2650    -8.8370 ns         1 8XG      -0.476400
     15 C6          -2.7680     3.9180    -8.7220 c          1 8XG       0.650000
     16 O6          -2.9130     3.2110    -9.7040 o          1 8XG      -0.618500
     17 C5          -2.6240     3.3520    -7.4340 cd         1 8XG       0.218800
     18 N7          -2.6030     2.0830    -6.9580 nd         1 8XG      -0.639000
     19 C8          -2.4350     2.1100    -5.6680 cc         1 8XG       0.484400
     20 C2'         -3.5250     4.1460    -3.2110 c3         1 8XG       0.064100
     21 O2'         -3.5940     5.5120    -2.7950 oh         1 8XG      -0.598800
     22 C3'         -3.5820     3.2050    -1.9810 c3         1 8XG       0.084100
     23 O3'         -4.3130     2.0140    -2.2830 oh         1 8XG      -0.575800
     24 O1          -0.4930    -1.2090    -0.6980 o          1 8XG      -0.728167
     25 H5'         -2.4640     1.5890    -0.0790 h1         1 8XG       0.043700
     26 H5''        -2.3180     0.7530    -1.6320 h1         1 8XG       0.043700
     27 H4'         -1.6060     3.6890    -1.2010 h1         1 8XG       0.072700
     28 H1'         -1.5370     4.7340    -3.8300 h2         1 8XG       0.088700
     29 H21         -3.4440     7.7270    -8.2100 hn         1 8XG       0.429467
     30 H22         -1.8450     7.6640    -8.5410 hn         1 8XG       0.429467
     31 H1          -2.8400     5.6900    -9.7380 hn         1 8XG       0.310500
     32 H8          -2.3720     1.2370    -5.0300 h5         1 8XG       0.113100
     33 H2'         -4.3270     3.9130    -3.9010 h1         1 8XG       0.058700
     34 HO2'        -4.4650     5.8410    -2.9410 ho         1 8XG       0.398000
     35 H3'         -4.0020     3.7180    -1.1240 h1         1 8XG       0.057700
     36 H3          -5.1670     2.0610    -1.8880 ho         1 8XG       0.397000
     37 H23         -2.3620     7.8390    -6.9960 hn         1 8XG       0.429467
@<TRIPOS>BOND
     1    13    12 1   
     2    21    20 1   
     3    12    11 2   
     4    12    14 1   
     5    11    10 1   
     6    20     8 1   
     7    20    22 1   
     8    14    15 1   
     9     8     7 1   
    10     8     9 1   
    11    22     6 1   
    12    22    23 1   
    13    10     9 1   
    14    10    17 2   
    15     7     6 1   
    16     9    19 1   
    17     6     5 1   
    18    15    17 1   
    19    15    16 2   
    20    17    18 1   
    21    19    18 2   
    22     5     4 1   
    23     4     1 1   
    24     1     2 1   
    25     1     3 1   
    26     1    24 1   
    27     5    25 1   
    28     5    26 1   
    29     6    27 1   
    30     8    28 1   
    31    13    29 1   
    32    13    30 1   
    33    14    31 1   
    34    19    32 1   
    35    20    33 1   
    36    21    34 1   
    37    22    35 1   
    38    23    36 1   
    39    37    13 1   
@<TRIPOS>SUBSTRUCTURE
     1 8XG         1 TEMP              0 ****  ****    0 ROOT
