@<TRIPOS>MOLECULE
molecule
   52    55     1     0     0
SMALL
bcc


@<TRIPOS>ATOM
      1 C1           0.0000     0.0000     0.0000 c3         1 8XH       0.112400
      2 C2           1.5300     0.0000     0.0000 c3         1 8XH       0.111000
      3 C3           2.2510     1.2770     2.0400 c3         1 8XH       0.125000
      4 C7           3.0440    -2.1120     4.3110 cc         1 8XH      -0.052000
      5 C8           3.1370    -1.5210     5.5380 cd         1 8XH      -0.231800
      6 C9           3.6160    -2.1700     6.7750 ca         1 8XH       0.604800
      7 C10          3.6620    -1.4590     7.9790 ca         1 8XH      -0.460600
      8 C11          4.1170    -2.1100     9.1110 ca         1 8XH       0.508200
      9 C12          4.4360    -4.0280     7.8710 ca         1 8XH       0.954900
     10 C13          5.3120    -6.0170     9.0390 c3         1 8XH       0.251500
     11 C14          6.8070    -5.7380     9.2210 c3         1 8XH      -0.134400
     12 C15          7.3140    -6.5000    10.4480 c3         1 8XH       0.140400
     13 C16          5.6700    -8.2210    10.1550 c3         1 8XH       0.140400
     14 C18          2.2350    -1.1880     1.9940 c          1 8XH       0.753100
     15 N            2.0180     0.0000     1.3820 n          1 8XH      -0.494800
     16 O           -0.4760     1.2210     0.5700 os         1 8XH      -0.442600
     17 C           -1.9010     1.3230     0.6170 c3         1 8XH       0.129700
     18 C6           2.5470    -1.1420     3.4330 cc         1 8XH      -0.245600
     19 N1           2.7100    -0.2140     5.4280 na         1 8XH      -0.116100
     20 C5           2.3540     0.0260     4.1660 cd         1 8XH      -0.077600
     21 C4           1.8280     1.2760     3.5100 c3         1 8XH      -0.029100
     22 N3           4.0070    -3.4450     6.7620 nb         1 8XH      -0.794000
     23 N2           4.4940    -3.3770     9.0220 nb         1 8XH      -0.812000
     24 N4           4.8340    -5.3540     7.8240 nu         1 8XH      -0.891900
     25 C17          5.0960    -7.5290     8.9160 c3         1 8XH      -0.134400
     26 O1           7.0560    -7.8950    10.2830 os         1 8XH      -0.422600
     27 H1          -0.3610    -0.0890    -1.0170 h1         1 8XH       0.036700
     28 H2          -0.3610    -0.8370     0.5860 h1         1 8XH       0.036700
     29 H3           1.8910    -0.8850    -0.5110 h1         1 8XH       0.069700
     30 H4           1.8910     0.8840    -0.5110 h1         1 8XH       0.069700
     31 H5           1.6500     2.0210     1.5290 h1         1 8XH       0.058700
     32 H6           3.3160     1.4710     2.0080 h1         1 8XH       0.058700
     33 H7           3.1270    -3.1730     4.1080 ha         1 8XH       0.182000
     34 H8           3.3480    -0.4230     8.0240 ha         1 8XH       0.130000
     35 H9           4.1670    -1.5890    10.0600 h4         1 8XH       0.026100
     36 H10          4.7680    -5.6450     9.8990 h1         1 8XH       0.077700
     37 H12          7.3460    -6.0710     8.3420 hc         1 8XH       0.058950
     38 H13          6.8000    -6.1410    11.3320 h1         1 8XH       0.049200
     39 H14          8.3800    -6.3410    10.5550 h1         1 8XH       0.049200
     40 H15          5.5610    -9.2940    10.0510 h1         1 8XH       0.049200
     41 H16          5.1380    -7.8820    11.0350 h1         1 8XH       0.049200
     42 H17         -2.1800     2.2700     1.0620 h1         1 8XH       0.030367
     43 H18         -2.3010     1.2640    -0.3880 h1         1 8XH       0.030367
     44 H19         -2.3010     0.5120     1.2130 h1         1 8XH       0.030367
     45 H20          2.6730     0.4490     6.1760 hn         1 8XH       0.297700
     46 H21          0.7470     1.2920     3.5760 hc         1 8XH       0.062700
     47 H22          2.2410     2.1460     4.0060 hc         1 8XH       0.062700
     48 H23          4.7590    -5.8690     6.9690 hn         1 8XH       0.459800
     49 H24          5.6030    -7.8950     8.0310 hc         1 8XH       0.058950
     50 H25          4.0360    -7.7380     8.8450 hc         1 8XH       0.058950
     51 O2           2.1730    -2.2400     1.3870 o          1 8XH      -0.643500
     52 H11          6.9610    -4.6760     9.3670 hc         1 8XH       0.058950
@<TRIPOS>BOND
     1    17    16 1
     2    16     1 1
     3     1     2 1
     4    51    14 2
     5     4    18 1
     6     4     5 2
     7    14    18 1
     8    14    15 1
     9     7     8 ar
    10     7     6 ar
    11     2    15 1
    12     8    23 ar
    13    18    20 2
    14    15     3 1
    15     5     6 1
    16     5    19 1
    17     6    22 ar
    18    23     9 ar
    19     3    21 1
    20    20    19 1
    21    20    21 1
    22    22     9 ar
    23     9    24 1
    24    24    10 1
    25    10    25 1
    26    10    11 1
    27    25    13 1
    28    13    26 1
    29    11    12 1
    30    12    26 1
    31     1    27 1
    32     1    28 1
    33     2    29 1
    34     2    30 1
    35     3    31 1
    36     3    32 1
    37     4    33 1
    38     7    34 1
    39     8    35 1
    40    10    36 1
    41    11    52 1
    42    11    37 1
    43    12    38 1
    44    12    39 1
    45    13    40 1
    46    13    41 1
    47    17    42 1
    48    17    43 1
    49    17    44 1
    50    19    45 1
    51    21    46 1
    52    21    47 1
    53    24    48 1
    54    25    49 1
    55    25    50 1
@<TRIPOS>SUBSTRUCTURE
     1 8XH         1 TEMP              0 ****  ****    0 ROOT
