@<TRIPOS>MOLECULE
8XH
   52    55     1     0     0
SMALL
bcc


@<TRIPOS>ATOM
      1 C1           0.0000     0.0000     0.0000 c3         1 8XH       0.186400
      2 C2           1.5300     0.0000     0.0000 c3         1 8XH       0.046000
      3 C3           2.2510     1.2770     2.0400 c3         1 8XH       0.066000
      4 C7           3.0440    -2.1120     4.3110 cc         1 8XH      -0.009000
      5 C8           3.1370    -1.5210     5.5380 cd         1 8XH      -0.453800
      6 C9           3.6160    -2.1700     6.7750 ca         1 8XH       0.585800
      7 C10          3.6620    -1.4590     7.9790 ca         1 8XH      -0.453600
      8 C11          4.1170    -2.1100     9.1110 ca         1 8XH       0.506200
      9 C12          4.4360    -4.0280     7.8710 ca         1 8XH       0.734900
     10 C13          5.3120    -6.0170     9.0390 c3         1 8XH       0.137500
     11 C14          6.8070    -5.7380     9.2210 c3         1 8XH      -0.082900
     12 C15          7.3140    -6.5000    10.4480 c3         1 8XH       0.220900
     13 C16          5.6700    -8.2210    10.1550 c3         1 8XH       0.220900
     14 C18          2.2350    -1.1880     1.9940 c          1 8XH       0.699100
     15 N            2.0180     0.0000     1.3820 n          1 8XH      -0.161800
     16 O           -0.4760     1.2210     0.5700 os         1 8XH      -0.430600
     17 C           -1.9010     1.3230     0.6170 c3         1 8XH       0.255700
     18 C6           2.5470    -1.1420     3.4330 cc         1 8XH      -0.254600
     19 N1           2.7100    -0.2140     5.4280 na         1 8XH       0.487900
     20 C5           2.3540     0.0260     4.1660 cd         1 8XH      -0.315600
     21 C4           1.8280     1.2760     3.5100 c3         1 8XH       0.067900
     22 N3           4.0070    -3.4450     6.7620 nb         1 8XH      -0.686000
     23 N2           4.4940    -3.3770     9.0220 nb         1 8XH      -0.717000
     24 N4           4.8340    -5.3540     7.8240 nu         1 8XH      -0.477900
     25 C17          5.0960    -7.5290     8.9160 c3         1 8XH      -0.082900
     26 O1           7.0560    -7.8950    10.2830 os         1 8XH      -0.409600
     27 H1          -0.3610    -0.0890    -1.0170 h1         1 8XH       0.003200
     28 H2          -0.3610    -0.8370     0.5860 h1         1 8XH       0.003200
     29 H3           1.8910    -0.8850    -0.5110 h1         1 8XH       0.039200
     30 H4           1.8910     0.8840    -0.5110 h1         1 8XH       0.039200
     31 H5           1.6500     2.0210     1.5290 h1         1 8XH       0.027700
     32 H6           3.3160     1.4710     2.0080 h1         1 8XH       0.027700
     33 H7           3.1270    -3.1730     4.1080 ha         1 8XH       0.149000
     34 H8           3.3480    -0.4230     8.0240 ha         1 8XH       0.115000
     35 H9           4.1670    -1.5890    10.0600 h4         1 8XH      -0.021900
     36 H10          4.7680    -5.6450     9.8990 h1         1 8XH       0.055700
     37 H12          7.3460    -6.0710     8.3420 hc         1 8XH       0.029700
     38 H13          6.8000    -6.1410    11.3320 h1         1 8XH       0.008950
     39 H14          8.3800    -6.3410    10.5550 h1         1 8XH       0.008950
     40 H15          5.5610    -9.2940    10.0510 h1         1 8XH       0.008950
     41 H16          5.1380    -7.8820    11.0350 h1         1 8XH       0.008950
     42 H17         -2.1800     2.2700     1.0620 h1         1 8XH      -0.012633
     43 H18         -2.3010     1.2640    -0.3880 h1         1 8XH      -0.012633
     44 H19         -2.3010     0.5120     1.2130 h1         1 8XH      -0.012633
     45 H20          2.6730     0.4490     6.1760 hn         1 8XH       0.104700
     46 H21          0.7470     1.2920     3.5760 hc         1 8XH       0.023200
     47 H22          2.2410     2.1460     4.0060 hc         1 8XH       0.023200
     48 H23          4.7590    -5.8690     6.9690 hn         1 8XH       0.304800
     49 H24          5.6030    -7.8950     8.0310 hc         1 8XH       0.029700
     50 H25          4.0360    -7.7380     8.8450 hc         1 8XH       0.029700
     51 O2           2.1730    -2.2400     1.3870 o          1 8XH      -0.686500
     52 H11          6.9610    -4.6760     9.3670 hc         1 8XH       0.029700
@<TRIPOS>BOND
     1     1     2 1   
     2     1    16 1   
     3     1    27 1   
     4     1    28 1   
     5     2    15 1   
     6     2    29 1   
     7     2    30 1   
     8     3    15 1   
     9     3    21 1   
    10     3    31 1   
    11     3    32 1   
    12     4     5 2   
    13     4    18 1   
    14     4    33 1   
    15     5     6 1   
    16     5    19 1   
    17     6     7 ar  
    18     6    22 ar  
    19     7     8 ar  
    20     7    34 1   
    21     8    23 ar  
    22     8    35 1   
    23     9    22 ar  
    24     9    23 ar  
    25     9    24 1   
    26    10    11 1   
    27    10    24 1   
    28    10    25 1   
    29    10    36 1   
    30    11    12 1   
    31    11    37 1   
    32    11    52 1   
    33    12    26 1   
    34    12    38 1   
    35    12    39 1   
    36    13    25 1   
    37    13    26 1   
    38    13    40 1   
    39    13    41 1   
    40    14    15 1   
    41    14    18 1   
    42    14    51 2   
    43    16    17 1   
    44    17    42 1   
    45    17    43 1   
    46    17    44 1   
    47    18    20 2   
    48    19    20 1   
    49    19    45 1   
    50    20    21 1   
    51    21    46 1   
    52    21    47 1   
    53    24    48 1   
    54    25    49 1   
    55    25    50 1   
@<TRIPOS>SUBSTRUCTURE
     1 8XH         1 TEMP              0 ****  ****    0 ROOT
