@<TRIPOS>MOLECULE
molecule
   51    54     1     0     0
SMALL
bcc


@<TRIPOS>ATOM
      1 C1           0.0000     0.0000     0.0000 cc         1 8XK       0.159300
      2 C2           1.3620     0.0000     0.0000 cd         1 8XK      -0.363300
      3 C3           1.7900     0.0000     1.3300 cd         1 8XK       0.341200
      4 N6          -3.7070     0.3570    -9.8090 n          1 8XK      -0.500800
      5 C7          -0.5590    -0.0070    -4.6800 ca         1 8XK       0.599800
      6 C8          -1.4500    -0.0050    -5.8570 cd         1 8XK      -0.223800
      7 C9          -1.0600     0.1680    -7.1530 cc         1 8XK      -0.079000
      8 C10         -2.2180     0.0970    -7.9360 cc         1 8XK      -0.234600
      9 C11         -3.2900    -0.1200    -7.0770 cd         1 8XK      -0.083600
     10 C13         -4.6970    -0.2420    -7.6050 c3         1 8XK      -0.027100
     11 C14         -4.8130     0.5800    -8.8890 c3         1 8XK       0.122000
     12 C15         -2.4290     0.2060    -9.3910 c          1 8XK       0.753100
     13 C16         -3.9900     0.2840   -11.2450 c3         1 8XK       0.112000
     14 O           -1.5000     0.1640   -10.1760 o          1 8XK      -0.611500
     15 C17         -3.8910     1.6840   -11.8550 c3         1 8XK       0.116400
     16 O1          -2.5450     2.1520   -11.7580 os         1 8XK      -0.399600
     17 C18         -2.3440     3.4580   -12.3030 c3         1 8XK       0.126700
     18 N5          -2.8190    -0.1810    -5.8320 na         1 8XK       0.009900
     19 C6           0.8330    -0.0010    -4.8420 ca         1 8XK      -0.415600
     20 C5           1.6260     0.0040    -3.7110 ca         1 8XK       0.499200
     21 N3           1.0530     0.0030    -2.5170 nb         1 8XK      -0.784000
     22 N4          -1.0650    -0.0080    -3.4470 nb         1 8XK      -0.821000
     23 C4          -0.2670    -0.0030    -2.3910 ca         1 8XK       0.951900
     24 N2          -0.8240    -0.0050    -1.1230 nu         1 8XK      -0.735300
     25 N1           0.7330    -0.0010     2.1030 nc         1 8XK      -0.516800
     26 N           -0.4080    -0.0000     1.2910 na         1 8XK       0.035400
     27 C           -1.7960    -0.0000     1.7560 c3         1 8XK       0.061600
     28 H1           2.0000     0.0010    -0.8760 ha         1 8XK       0.203000
     29 H2           2.8200    -0.0000     1.6640 h4         1 8XK       0.047100
     30 H3          -0.0870     0.5100    -7.4840 ha         1 8XK       0.168000
     31 H4          -3.2290    -1.2450    -4.0770 h1         1 8XK       0.059033
     32 H5          -4.6500    -0.6020    -4.9110 h1         1 8XK       0.059033
     33 H6          -3.5890     0.4850    -4.0040 h1         1 8XK       0.059033
     34 H7          -5.3950     0.1370    -6.8680 hc         1 8XK       0.060700
     35 H8          -4.9150    -1.2810    -7.8190 hc         1 8XK       0.060700
     36 H9          -4.7960     1.6270    -8.6090 h1         1 8XK       0.049700
     37 H10         -5.7220     0.2710    -9.3920 h1         1 8XK       0.049700
     38 H11         -4.9890    -0.1070   -11.3970 h1         1 8XK       0.064200
     39 H12         -3.2700    -0.3690   -11.7220 h1         1 8XK       0.064200
     40 H13         -4.1860     1.6450   -12.8970 h1         1 8XK       0.021700
     41 H14         -4.5480     2.3580   -11.3190 h1         1 8XK       0.021700
     42 H15         -2.5880     3.4500   -13.3580 h1         1 8XK       0.027700
     43 H16         -1.3080     3.7470   -12.1740 h1         1 8XK       0.027700
     44 H17         -2.9830     4.1660   -11.7890 h1         1 8XK       0.027700
     45 H18          1.2770     0.0000    -5.8300 ha         1 8XK       0.157000
     46 H19          2.7060     0.0090    -3.7990 h4         1 8XK       0.034100
     47 H20         -1.8190    -0.0040    -1.0140 hn         1 8XK       0.459800
     48 H21         -1.8140     0.0010     2.8390 h1         1 8XK       0.051033
     49 H22         -2.3010     0.8830     1.3850 h1         1 8XK       0.051033
     50 H23         -2.3000    -0.8860     1.3870 h1         1 8XK       0.051033
     51 C12         -3.6240    -0.4000    -4.6270 c3         1 8XK       0.033600
@<TRIPOS>BOND
     1    17    16 1   
     2    16    15 1   
     3    15    13 1   
     4    14    12 2   
     5    13     4 1   
     6    12     8 1   
     7    12     4 1   
     8    19    20 ar  
     9    19     5 ar  
    10    20    21 ar  
    11     7     8 1   
    12     7     6 2   
    13     8     9 2   
    14     4    11 1   
    15     6     5 1   
    16     6    18 1   
    17     5    22 ar  
    18     9    18 1   
    19     9    10 1   
    20    21    23 ar  
    21    18    51 1   
    22    10    11 1   
    23    22    23 ar  
    24    23    24 1   
    25    24     1 1   
    26    27    26 1   
    27     1    26 1   
    28     1     2 2   
    29    26    25 1   
    30     2     3 1   
    31    25     3 2   
    32     2    28 1   
    33     3    29 1   
    34     7    30 1   
    35    51    31 1   
    36    51    32 1   
    37    51    33 1   
    38    10    34 1   
    39    10    35 1   
    40    11    36 1   
    41    11    37 1   
    42    13    38 1   
    43    13    39 1   
    44    15    40 1   
    45    15    41 1   
    46    17    42 1   
    47    17    43 1   
    48    17    44 1   
    49    19    45 1   
    50    20    46 1   
    51    24    47 1   
    52    27    48 1   
    53    27    49 1   
    54    27    50 1   
@<TRIPOS>SUBSTRUCTURE
     1 8XK         1 TEMP              0 ****  ****    0 ROOT
