@<TRIPOS>MOLECULE
8XN
   54    57     1     0     0
SMALL
bcc


@<TRIPOS>ATOM
      1 C1           0.0000     0.0000     0.0000 ca         1 8XN      -0.407900
      2 C2           1.3820     0.0000     0.0000 ca         1 8XN       0.490200
      3 C3           1.3740    -0.0000     2.3070 ca         1 8XN       0.702900
      4 N6           4.3070     0.0020     4.5370 na         1 8XN       0.455400
      5 C7          -4.2430     0.4110     1.8670 cc         1 8XN      -0.245600
      6 C8          -4.2450    -0.4670     0.7860 cd         1 8XN      -0.318600
      7 C9          -5.5370    -0.9780     0.2040 c3         1 8XN       0.075900
      8 C10         -6.6270     0.0710     0.4220 c3         1 8XN       0.042700
      9 C11         -5.5090     0.8590     2.4750 c          1 8XN       0.704100
     10 C13         -8.4560    -0.4240     3.0600 c3         1 8XN       0.188400
     11 C14         -7.9690    -2.0250     4.7760 c3         1 8XN       0.250700
     12 C15         -6.3990     1.2290    -0.5530 c3         1 8XN      -0.027100
     13 C16          3.4850     0.0010     3.4630 cc         1 8XN      -0.151700
     14 O           -5.5350     1.4320     3.5470 o          1 8XN      -0.665500
     15 C6          -2.9080     0.6990     2.1720 cc         1 8XN      -0.016000
     16 N3          -6.6410     0.6000     1.7800 n          1 8XN      -0.157800
     17 O1          -7.5880    -0.8100     4.1270 os         1 8XN      -0.396600
     18 N2          -2.9800    -0.7040     0.4440 na         1 8XN       0.476900
     19 C5          -2.1420    -0.0010     1.2850 cd         1 8XN      -0.449800
     20 C4          -0.6670    -0.0000     1.2310 ca         1 8XN       0.575800
     21 C           -0.7700     0.0050    -1.2950 c3         1 8XN       0.080200
     22 N1           0.0510    -0.0000     2.3550 nb         1 8XN      -0.665000
     23 N            2.0310     0.0000     1.1550 nb         1 8XN      -0.672000
     24 N4           2.0920     0.0000     3.4920 nu         1 8XN      -0.242300
     25 N5           5.6270     0.0020     4.0700 nc         1 8XN      -0.657800
     26 C18          5.6020     0.0020     2.7610 cd         1 8XN       0.406200
     27 C17          4.2670     0.0010     2.3480 cd         1 8XN      -0.374300
     28 H1           1.9290     0.0000    -0.9350 h4         1 8XN      -0.013900
     29 H2          -5.4120    -1.1540    -0.8580 hc         1 8XN       0.022700
     30 H3          -5.8180    -1.9000     0.6990 hc         1 8XN       0.022700
     31 H4          -7.5890    -0.3810     0.2150 h1         1 8XN       0.030700
     32 H5          -8.6410     1.2080     1.6730 h1         1 8XN       0.040200
     33 H6          -7.8120     1.6230     3.1800 h1         1 8XN       0.040200
     34 H7          -9.4590    -0.2810     3.4440 h1         1 8XN      -0.010300
     35 H8          -8.4670    -1.2000     2.3040 h1         1 8XN      -0.010300
     36 H9          -7.1390    -2.3960     5.3650 h1         1 8XN      -0.014300
     37 H10         -8.2420    -2.7630     4.0310 h1         1 8XN      -0.014300
     38 H11         -8.8160    -1.8370     5.4250 h1         1 8XN      -0.014300
     39 H12         -7.3110     1.8050    -0.6490 hc         1 8XN       0.013033
     40 H13         -6.1170     0.8350    -1.5220 hc         1 8XN       0.013033
     41 H14         -5.6070     1.8660    -0.1780 hc         1 8XN       0.013033
     42 H15          4.7660     0.0010     6.5790 h1         1 8XN       0.019700
     43 H16          3.3040    -0.8930     6.1410 h1         1 8XN       0.019700
     44 H17          3.2920     0.8760     6.1440 h1         1 8XN       0.019700
     45 H18         -2.5520     1.3480     2.9630 ha         1 8XN       0.144000
     46 H19         -2.6830    -1.3010    -0.3020 hn         1 8XN       0.112700
     47 H20         -0.1010     0.2430    -2.1120 hc         1 8XN       0.007033
     48 H21         -1.2080    -0.9720    -1.4590 hc         1 8XN       0.007033
     49 H22         -1.5570     0.7490    -1.2440 hc         1 8XN       0.007033
     50 H23          1.6090    -0.0060     4.3690 hn         1 8XN       0.287800
     51 H24          6.4670     0.0030     2.1100 h4         1 8XN       0.001100
     52 H25          3.9160     0.0010     1.3230 ha         1 8XN       0.189000
     53 C12         -7.9340     0.8630     2.4180 c3         1 8XN       0.041000
     54 C19          3.8900    -0.0040     5.9420 c3         1 8XN       0.024600
@<TRIPOS>BOND
     1     1     2 ar  
     2     1    20 ar  
     3     1    21 1   
     4     2    23 ar  
     5     2    28 1   
     6     3    22 ar  
     7     3    23 ar  
     8     3    24 1   
     9     4    13 1   
    10     4    25 1   
    11     4    54 1   
    12     5     6 2   
    13     5     9 1   
    14     5    15 1   
    15     6     7 1   
    16     6    18 1   
    17     7     8 1   
    18     7    29 1   
    19     7    30 1   
    20     8    12 1   
    21     8    16 1   
    22     8    31 1   
    23     9    14 2   
    24     9    16 1   
    25    10    17 1   
    26    10    34 1   
    27    10    35 1   
    28    10    53 1   
    29    11    17 1   
    30    11    36 1   
    31    11    37 1   
    32    11    38 1   
    33    12    39 1   
    34    12    40 1   
    35    12    41 1   
    36    13    24 1   
    37    13    27 2   
    38    15    19 2   
    39    15    45 1   
    40    16    53 1   
    41    18    19 1   
    42    18    46 1   
    43    19    20 1   
    44    20    22 ar  
    45    21    47 1   
    46    21    48 1   
    47    21    49 1   
    48    24    50 1   
    49    25    26 2   
    50    26    27 1   
    51    26    51 1   
    52    27    52 1   
    53    32    53 1   
    54    33    53 1   
    55    42    54 1   
    56    43    54 1   
    57    44    54 1   
@<TRIPOS>SUBSTRUCTURE
     1 8XN         1 TEMP              0 ****  ****    0 ROOT
