@<TRIPOS>MOLECULE
molecule
   54    57     1     0     0
SMALL
bcc


@<TRIPOS>ATOM
      1 C1           0.0000     0.0000     0.0000 ca         1 8XN      -0.391900
      2 C2           1.3820     0.0000     0.0000 ca         1 8XN       0.499200
      3 C3           1.3740    -0.0000     2.3070 ca         1 8XN       0.947900
      4 N6           4.3070     0.0020     4.5370 na         1 8XN       0.038400
      5 C7          -4.2430     0.4110     1.8670 cc         1 8XN      -0.235600
      6 C8          -4.2450    -0.4670     0.7860 cd         1 8XN      -0.083600
      7 C9          -5.5370    -0.9780     0.2040 c3         1 8XN      -0.017100
      8 C10         -6.6270     0.0710     0.4220 c3         1 8XN       0.128700
      9 C11         -5.5090     0.8590     2.4750 c          1 8XN       0.760100
     10 C13         -8.4560    -0.4240     3.0600 c3         1 8XN       0.115400
     11 C14         -7.9690    -2.0250     4.7760 c3         1 8XN       0.127700
     12 C15         -6.3990     1.2290    -0.5530 c3         1 8XN      -0.114100
     13 C16          3.4850     0.0010     3.4630 cc         1 8XN       0.160300
     14 O           -5.5350     1.4320     3.5470 o          1 8XN      -0.621500
     15 C6          -2.9080     0.6990     2.1720 cc         1 8XN      -0.060000
     16 N3          -6.6410     0.6000     1.7800 n          1 8XN      -0.492800
     17 O1          -7.5880    -0.8100     4.1270 os         1 8XN      -0.408600
     18 N2          -2.9800    -0.7040     0.4440 na         1 8XN      -0.116100
     19 C5          -2.1420    -0.0010     1.2850 cd         1 8XN      -0.229800
     20 C4          -0.6670    -0.0000     1.2310 ca         1 8XN       0.597800
     21 C           -0.7700     0.0050    -1.2950 c3         1 8XN      -0.032800
     22 N1           0.0510    -0.0000     2.3550 nb         1 8XN      -0.774000
     23 N            2.0310     0.0000     1.1550 nb         1 8XN      -0.777000
     24 N4           2.0920     0.0000     3.4920 nu         1 8XN      -0.731300
     25 N5           5.6270     0.0020     4.0700 nc         1 8XN      -0.516800
     26 C18          5.6020     0.0020     2.7610 cd         1 8XN       0.340200
     27 C17          4.2670     0.0010     2.3480 cd         1 8XN      -0.367300
     28 H1           1.9290     0.0000    -0.9350 h4         1 8XN       0.032100
     29 H2          -5.4120    -1.1540    -0.8580 hc         1 8XN       0.061200
     30 H3          -5.8180    -1.9000     0.6990 hc         1 8XN       0.061200
     31 H4          -7.5890    -0.3810     0.2150 h1         1 8XN       0.057700
     32 H5          -8.6410     1.2080     1.6730 h1         1 8XN       0.070200
     33 H6          -7.8120     1.6230     3.1800 h1         1 8XN       0.070200
     34 H7          -9.4590    -0.2810     3.4440 h1         1 8XN       0.022200
     35 H8          -8.4670    -1.2000     2.3040 h1         1 8XN       0.022200
     36 H9          -7.1390    -2.3960     5.3650 h1         1 8XN       0.028367
     37 H10         -8.2420    -2.7630     4.0310 h1         1 8XN       0.028367
     38 H11         -8.8160    -1.8370     5.4250 h1         1 8XN       0.028367
     39 H12         -7.3110     1.8050    -0.6490 hc         1 8XN       0.044700
     40 H13         -6.1170     0.8350    -1.5220 hc         1 8XN       0.044700
     41 H14         -5.6070     1.8660    -0.1780 hc         1 8XN       0.044700
     42 H15          4.7660     0.0010     6.5790 h1         1 8XN       0.052700
     43 H16          3.3040    -0.8930     6.1410 h1         1 8XN       0.052700
     44 H17          3.2920     0.8760     6.1440 h1         1 8XN       0.052700
     45 H18         -2.5520     1.3480     2.9630 ha         1 8XN       0.177000
     46 H19         -2.6830    -1.3010    -0.3020 hn         1 8XN       0.300700
     47 H20         -0.1010     0.2430    -2.1120 hc         1 8XN       0.042033
     48 H21         -1.2080    -0.9720    -1.4590 hc         1 8XN       0.042033
     49 H22         -1.5570     0.7490    -1.2440 hc         1 8XN       0.042033
     50 H23          1.6090    -0.0060     4.3690 hn         1 8XN       0.466800
     51 H24          6.4670     0.0030     2.1100 h4         1 8XN       0.046100
     52 H25          3.9160     0.0010     1.3230 ha         1 8XN       0.200000
     53 C12         -7.9340     0.8630     2.4180 c3         1 8XN       0.108000
     54 C19          3.8900    -0.0040     5.9420 c3         1 8XN       0.060600
@<TRIPOS>BOND
     1    11    17 1   
     2    17    10 1   
     3    14     9 2   
     4    21     1 1   
     5    10    53 1   
     6    15     5 1   
     7    15    19 2   
     8     9     5 1   
     9     9    16 1   
    10     1     2 ar  
    11     1    20 ar  
    12     2    23 ar  
    13    53    16 1   
    14     5     6 2   
    15    16     8 1   
    16    12     8 1   
    17    19    20 1   
    18    19    18 1   
    19    20    22 ar  
    20    23     3 ar  
    21     8     7 1   
    22    22     3 ar  
    23     6    18 1   
    24     6     7 1   
    25     3    24 1   
    26    24    13 1   
    27    54     4 1   
    28    13     4 1   
    29    13    27 2   
    30     4    25 1   
    31    27    26 1   
    32    25    26 2   
    33     2    28 1   
    34     7    29 1   
    35     7    30 1   
    36     8    31 1   
    37    53    32 1   
    38    53    33 1   
    39    10    34 1   
    40    10    35 1   
    41    11    36 1   
    42    11    37 1   
    43    11    38 1   
    44    12    39 1   
    45    12    40 1   
    46    12    41 1   
    47    54    42 1   
    48    54    43 1   
    49    54    44 1   
    50    15    45 1   
    51    18    46 1   
    52    21    47 1   
    53    21    48 1   
    54    21    49 1   
    55    24    50 1   
    56    26    51 1   
    57    27    52 1   
@<TRIPOS>SUBSTRUCTURE
     1 8XN         1 TEMP              0 ****  ****    0 ROOT
