@<TRIPOS>MOLECULE
8XQ
   20    20     1     0     0
SMALL
bcc


@<TRIPOS>ATOM
      1 OAA         0.8580   -1.0570   -0.2840 o         1 8XQ     -0.555500
      2 OAB         1.6570    0.8700   -1.0990 o         1 8XQ     -0.555500
      3 CAD         5.2730   -0.9680    0.1050 c2        1 8XQ     -0.225000
      4 CAE         6.6960    0.5890    2.7570 c1        1 8XQ      0.066000
      5 CAF         1.8590    0.9550    3.5720 c3        1 8XQ     -0.180000
      6 CAG         1.2800    0.7300    2.2530 c1        1 8XQ     -0.053000
      7 CAH         4.3030   -0.0560    0.1470 c2        1 8XQ     -0.119000
      8 NAI         5.5170    0.5850    2.6950 n2        1 8XQ     -0.264000
      9 CAJ         1.4810    0.0290   -0.1720 c2        1 8XQ      0.387000
     10 CAK         3.3440    0.8810    3.6840 c2        1 8XQ      0.045000
     11 CAL         2.1260    0.3500    1.1840 c2        1 8XQ     -0.188000
     12 CAM         3.4930    0.2830    1.3130 c2        1 8XQ      0.062000
     13 CAN         4.1370    0.5860    2.5950 c2        1 8XQ     -0.066000
     14 HOAC        4.7500    1.0720    4.9920 ho        1 8XQ      0.215000
     15 HAD         5.5910   -1.5630    0.9700 ha        1 8XQ      0.101500
     16 HAE         5.8020   -1.1960   -0.8290 ha        1 8XQ      0.101500
     17 HAF         1.3970    0.2040    4.2770 hc        1 8XQ      0.151500
     18 HAG         1.5260    1.9750    3.9230 hc        1 8XQ      0.151500
     19 HAH         3.9670    0.4740   -0.7720 ha        1 8XQ      0.184000
     20 OAC         3.7860    1.1440    4.9540 oh        1 8XQ     -0.260000
@<TRIPOS>BOND
     1    1    9 1   
     2    2    9 1   
     3    3    7 1   
     4    3   15 1   
     5    3   16 1   
     6    4    8 1   
     7    5    6 1   
     8    5   10 1   
     9    5   17 1   
    10    5   18 1   
    11    6   11 1   
    12    7   12 1   
    13    7   19 1   
    14    8   13 1   
    15    9   11 1   
    16   10   13 1   
    17   10   20 1   
    18   11   12 1   
    19   12   13 1   
    20   14   20 1   
@<TRIPOS>SUBSTRUCTURE
     1 8XQ         1 TEMP              0 ****  ****    0 ROOT
