@<TRIPOS>MOLECULE
molecule
   20    21     1     0     0
SMALL
bcc


@<TRIPOS>ATOM
      1 OAA          0.0000     0.0000     0.0000 o          1 8XQ      -0.831300
      2 OAB          1.9550    -0.2500    -1.0230 o          1 8XQ      -0.831300
      3 CAD          5.6390    -0.3050     0.2850 ca         1 8XQ      -0.304300
      4 CAE          6.2460     0.0000     1.4990 ca         1 8XQ       0.407200
      5 CAF          2.0980     0.9860     3.5490 ca         1 8XQ      -0.158000
      6 CAG          1.4050     0.7030     2.3840 ca         1 8XQ      -0.117000
      7 CAH          4.2790    -0.2180     0.1620 ca         1 8XQ      -0.048000
      8 NAI          5.5480     0.3740     2.5450 nb         1 8XQ      -0.696000
      9 CAJ          1.3470     0.0000     0.0000 c          1 8XQ       0.887200
     10 CAK          3.4700     0.8820     3.6190 ca         1 8XQ       0.019800
     11 CAL          2.0830     0.3000     1.2380 ca         1 8XQ      -0.074600
     12 CAM          3.5390     0.1830     1.2850 ca         1 8XQ      -0.137300
     13 CAN          4.2180     0.4780     2.4890 ca         1 8XQ       0.392600
     14 HOAC         4.1240     2.1020     4.9090 ho         1 8XQ       0.400000
     15 HAD          6.2410    -0.6120    -0.5620 ha         1 8XQ       0.119000
     16 HAE          7.3230    -0.0730     1.5830 h4         1 8XQ      -0.003900
     17 HAF          1.5470     1.2980     4.4280 ha         1 8XQ       0.117000
     18 HAG          0.3260     0.7950     2.3650 ha         1 8XQ       0.159000
     19 HAH          3.7880    -0.4520    -0.7750 ha         1 8XQ       0.213000
     20 OAC          4.1080     1.1680     4.7810 oh         1 8XQ      -0.514100
@<TRIPOS>BOND
     1     1     9 1   
     2     2     9 1   
     3    20    10 1   
     4     3     4 ar  
     5     3     7 ar  
     6     4     8 ar  
     7     5     6 ar  
     8     5    10 ar  
     9     6    11 ar  
    10     7    12 ar  
    11     8    13 ar  
    12     9    11 1   
    13    10    13 ar  
    14    11    12 ar  
    15    12    13 ar  
    16    20    14 1   
    17     3    15 1   
    18     4    16 1   
    19     5    17 1   
    20     6    18 1   
    21     7    19 1   
@<TRIPOS>SUBSTRUCTURE
     1 8XQ         1 TEMP              0 ****  ****    0 ROOT
