@<TRIPOS>MOLECULE
8XR
   58    61     1     0     0
SMALL
bcc


@<TRIPOS>ATOM
      1 C13          0.0000     0.0000     0.0000 c3         1 8XR       0.007900
      2 C17          8.4160     3.3030    -3.4440 ca         1 8XR      -0.098400
      3 C20         10.3500     4.5210    -4.1710 ca         1 8XR      -0.085000
      4 C21          9.9050     4.4440    -5.4770 ca         1 8XR      -0.101300
      5 C22          8.7210     3.7930    -5.7720 ca         1 8XR      -0.086000
      6 C24          1.7130     2.7790     1.1770 c3         1 8XR      -0.077900
      7 C26          1.7590     4.8180    -0.1630 c3         1 8XR      -0.017400
      8 C01          6.1430     1.6850    -0.2430 ca         1 8XR      -0.058000
      9 C02          5.5290     2.0260    -1.4500 ca         1 8XR      -0.182600
     10 C03          4.1500     1.8580    -1.6020 ca         1 8XR       0.007000
     11 C04          3.3970     1.3540    -0.5560 ca         1 8XR      -0.027400
     12 C05          4.0230     1.0130     0.6460 ca         1 8XR      -0.069400
     13 C06          5.3910     1.1810     0.7970 ca         1 8XR      -0.146000
     14 N07          2.0180     1.1910    -0.7030 nh         1 8XR      -0.366000
     15 C08          1.5310     0.0000     0.0000 c3         1 8XR       0.060500
     16 C09          2.0300     0.0000     1.4210 c          1 8XR       0.590500
     17 N10          3.2550     0.4960     1.6960 n          1 8XR       0.004000
     18 O11          1.3370    -0.4430     2.3120 o          1 8XR      -0.653500
     19 C12          3.7730     0.4930     3.0670 c3         1 8XR       0.059300
     20 C14          1.2960     2.3930    -0.2630 c3         1 8XR       0.111500
     21 N16          7.6650     2.7270    -2.4150 ns         1 8XR      -0.026100
     22 O18          5.7980     2.8610    -3.6140 o          1 8XR      -0.638100
     23 C19          9.6090     3.9530    -3.1530 ca         1 8XR      -0.121300
     24 C23          7.9750     3.2220    -4.7580 ca         1 8XR      -0.116000
     25 C25          1.3780     4.2910     1.2350 c3         1 8XR      -0.017400
     26 C27          1.7070     3.6110    -1.1170 c3         1 8XR      -0.077900
     27 C29         10.7160     5.0640    -6.5860 c3         1 8XR       0.066200
     28 H1          -0.3610     0.3530    -0.9580 hc         1 8XR       0.020033
     29 H2          -0.3610     0.6530     0.7850 hc         1 8XR       0.020033
     30 H3          -0.3610    -1.0070     0.1740 hc         1 8XR       0.020033
     31 H4          11.2790     5.0300    -3.9450 ha         1 8XR       0.108000
     32 H5           8.3770     3.7320    -6.7970 ha         1 8XR       0.108000
     33 H6           2.7730     2.6170     1.3240 hc         1 8XR       0.035200
     34 H7           1.1280     2.2300     1.9040 hc         1 8XR       0.035200
     35 H8           1.0480     5.5710    -0.4810 hc         1 8XR       0.014700
     36 H9           2.7610     5.2300    -0.1430 hc         1 8XR       0.014700
     37 H10         10.2880     3.0410    -1.3530 hc         1 8XR       0.005700
     38 H11         11.0050     4.6220    -1.6910 hc         1 8XR       0.005700
     39 H12          9.3350     4.5120    -1.1170 hc         1 8XR       0.005700
     40 H13          7.2130     1.8130    -0.1260 ha         1 8XR       0.102000
     41 H14          3.6840     2.0460    -2.5620 ha         1 8XR       0.146000
     42 H15          5.8700     0.9170     1.7320 ha         1 8XR       0.120000
     43 H19          4.5240    -0.2810     3.1680 h1         1 8XR       0.023700
     44 H20          4.2160     1.4570     3.2880 h1         1 8XR       0.023700
     45 H21          2.9620     0.3020     3.7590 h1         1 8XR       0.023700
     46 H22          0.2250     2.2400    -0.3170 h1         1 8XR       0.059700
     47 H23          8.1220     2.3830    -1.5940 hn         1 8XR       0.174500
     48 H24          7.0470     2.7120    -4.9890 ha         1 8XR       0.164000
     49 H25          0.3200     4.4360     1.4180 hc         1 8XR       0.014700
     50 H26          1.9720     4.7800     1.9980 hc         1 8XR       0.014700
     51 H27          0.9710     3.7840    -1.8920 hc         1 8XR       0.035200
     52 H28          2.6840     3.4430    -1.5540 hc         1 8XR       0.035200
     53 H29         11.5910     4.4560    -6.7780 hc         1 8XR       0.006367
     54 H30         10.1130     5.1240    -7.4840 hc         1 8XR       0.006367
     55 H31         11.0260     6.0600    -6.2930 hc         1 8XR       0.006367
     56 H16          1.8940    -0.8860    -0.5060 h1         1 8XR       0.058700
     57 C15          6.3340     2.5640    -2.5630 c          1 8XR       0.588700
     58 C28         10.0940     4.0380    -1.7280 c3         1 8XR       0.065200
@<TRIPOS>BOND
     1     1    15 1   
     2     1    28 1   
     3     1    29 1   
     4     1    30 1   
     5     2    21 1   
     6     2    23 ar  
     7     2    24 ar  
     8     3     4 ar  
     9     3    23 ar  
    10     3    31 1   
    11     4     5 ar  
    12     4    27 1   
    13     5    24 ar  
    14     5    32 1   
    15     6    20 1   
    16     6    25 1   
    17     6    33 1   
    18     6    34 1   
    19     7    25 1   
    20     7    26 1   
    21     7    35 1   
    22     7    36 1   
    23     8     9 ar  
    24     8    13 ar  
    25     8    40 1   
    26     9    10 ar  
    27     9    57 1   
    28    10    11 ar  
    29    10    41 1   
    30    11    12 ar  
    31    11    14 1   
    32    12    13 ar  
    33    12    17 1   
    34    13    42 1   
    35    14    15 1   
    36    14    20 1   
    37    15    16 1   
    38    15    56 1   
    39    16    17 1   
    40    16    18 2   
    41    17    19 1   
    42    19    43 1   
    43    19    44 1   
    44    19    45 1   
    45    20    26 1   
    46    20    46 1   
    47    21    47 1   
    48    21    57 1   
    49    22    57 2   
    50    23    58 1   
    51    24    48 1   
    52    25    49 1   
    53    25    50 1   
    54    26    51 1   
    55    26    52 1   
    56    27    53 1   
    57    27    54 1   
    58    27    55 1   
    59    37    58 1   
    60    38    58 1   
    61    39    58 1   
@<TRIPOS>SUBSTRUCTURE
     1 8XR         1 TEMP              0 ****  ****    0 ROOT
