@<TRIPOS>MOLECULE
8XT
   41    43     1     0     0
SMALL
bcc


@<TRIPOS>ATOM
      1 C1           0.0000     0.0000     0.0000 c3         1 8XT      -0.008100
      2 C2           1.5290     0.0000     0.0000 c3         1 8XT       0.054000
      3 C3           3.3430    -0.0000     1.6270 c          1 8XT       0.625300
      4 C7           6.2270     0.0030     5.7410 ca         1 8XT       0.122600
      5 C8           7.9660     1.3370     4.8800 c3         1 8XT       0.083500
      6 C9           7.8600     2.3290     6.0400 c3         1 8XT      -0.044100
      7 C10          9.4140     1.2770     4.3890 c3         1 8XT       0.214400
      8 C11          9.8770    -0.5160     5.9090 c3         1 8XT       0.214400
      9 C12          8.4330    -0.4740     6.4160 c3         1 8XT       0.078800
     10 C13          5.8880     0.0100     7.0900 ca         1 8XT      -0.327300
     11 C14          4.5540     0.0100     7.4550 ca         1 8XT       0.452200
     12 C15          3.8470     0.0030     5.2530 ca         1 8XT       0.253800
     13 N1           2.0190     0.0000     1.3810 ns         1 8XT      -0.205900
     14 O1           4.1340    -0.0010     0.7010 o          1 8XT      -0.634100
     15 C4           3.8340    -0.0000     3.0110 cc         1 8XT      -0.344300
     16 C5           5.1400     0.0010     3.3860 cd         1 8XT      -0.043200
     17 N4           3.0390     0.0010     4.1440 na         1 8XT       0.269900
     18 C6           5.1800     0.0020     4.7980 ca         1 8XT      -0.244100
     19 N2           7.5540     0.0020     5.3370 nh         1 8XT      -0.361000
     20 N3           3.5920     0.0040     6.5560 nb         1 8XT      -0.604000
     21 O2          10.2500     0.7840     5.4400 os         1 8XT      -0.409600
     22 H1          -0.3610     0.8850     0.5110 hc         1 8XT       0.008367
     23 H2          -0.3610    -0.8840     0.5110 hc         1 8XT       0.008367
     24 H3          -0.3610    -0.0000    -1.0210 hc         1 8XT       0.008367
     25 H4           1.8900     0.8840    -0.5110 h1         1 8XT       0.027200
     26 H5           1.8900    -0.8840    -0.5110 h1         1 8XT       0.027200
     27 H6           7.3230     1.6530     4.0670 h1         1 8XT       0.052700
     28 H7           8.4120     1.9500     6.8910 hc         1 8XT       0.019033
     29 H8           8.2750     3.2840     5.7370 hc         1 8XT       0.019033
     30 H9           6.8200     2.4580     6.3120 hc         1 8XT       0.019033
     31 H10          9.7400     2.2700     4.1060 h1         1 8XT       0.017200
     32 H11          9.4780     0.6130     3.5360 h1         1 8XT       0.017200
     33 H12         10.5350    -0.8100     6.7180 h1         1 8XT       0.014700
     34 H13          9.9530    -1.2280     5.0960 h1         1 8XT       0.014700
     35 H14          8.3660     0.2010     7.2610 h1         1 8XT       0.032200
     36 H15          8.1280    -1.4690     6.7170 h1         1 8XT       0.032200
     37 H16          6.6620     0.0150     7.8480 ha         1 8XT       0.132000
     38 H17          4.2950     0.0160     8.5070 h4         1 8XT      -0.023900
     39 H18          1.3690    -0.0190     2.1410 hn         1 8XT       0.166500
     40 H19          5.9930    -0.0980     2.7250 ha         1 8XT       0.148000
     41 H20          2.0380    -0.0000     4.1530 hn         1 8XT       0.116700
@<TRIPOS>BOND
     1     1     2 1   
     2     1    22 1   
     3     1    23 1   
     4     1    24 1   
     5     2    13 1   
     6     2    25 1   
     7     2    26 1   
     8     3    13 1   
     9     3    14 2   
    10     3    15 1   
    11     4    10 ar  
    12     4    18 ar  
    13     4    19 1   
    14     5     6 1   
    15     5     7 1   
    16     5    19 1   
    17     5    27 1   
    18     6    28 1   
    19     6    29 1   
    20     6    30 1   
    21     7    21 1   
    22     7    31 1   
    23     7    32 1   
    24     8     9 1   
    25     8    21 1   
    26     8    33 1   
    27     8    34 1   
    28     9    19 1   
    29     9    35 1   
    30     9    36 1   
    31    10    11 ar  
    32    10    37 1   
    33    11    20 ar  
    34    11    38 1   
    35    12    17 1   
    36    12    18 ar  
    37    12    20 ar  
    38    13    39 1   
    39    15    16 2   
    40    15    17 1   
    41    16    18 1   
    42    16    40 1   
    43    17    41 1   
@<TRIPOS>SUBSTRUCTURE
     1 8XT         1 TEMP              0 ****  ****    0 ROOT
