@<TRIPOS>MOLECULE
molecule
   41    43     1     0     0
SMALL
bcc


@<TRIPOS>ATOM
      1 C1           0.0000     0.0000     0.0000 c3         1 8XT      -0.113100
      2 C2           1.5290     0.0000     0.0000 c3         1 8XT       0.111000
      3 C3           3.3430    -0.0000     1.6270 c          1 8XT       0.695300
      4 C7           6.2270     0.0030     5.7410 ca         1 8XT       0.193600
      5 C8           7.9660     1.3370     4.8800 c3         1 8XT       0.139500
      6 C9           7.8600     2.3290     6.0400 c3         1 8XT      -0.127100
      7 C10          9.4140     1.2770     4.3890 c3         1 8XT       0.142400
      8 C11          9.8770    -0.5160     5.9090 c3         1 8XT       0.137400
      9 C12          8.4330    -0.4740     6.4160 c3         1 8XT       0.117800
     10 C13          5.8880     0.0100     7.0900 ca         1 8XT      -0.348300
     11 C14          4.5540     0.0100     7.4550 ca         1 8XT       0.478200
     12 C15          3.8470     0.0030     5.2530 ca         1 8XT       0.490800
     13 N1           2.0190     0.0000     1.3810 ns         1 8XT      -0.586900
     14 O1           4.1340    -0.0010     0.7010 o          1 8XT      -0.593100
     15 C4           3.8340    -0.0000     3.0110 cc         1 8XT      -0.141300
     16 C5           5.1400     0.0010     3.3860 cd         1 8XT      -0.083200
     17 N4           3.0390     0.0010     4.1440 na         1 8XT      -0.275100
     18 C6           5.1800     0.0020     4.7980 ca         1 8XT      -0.239100
     19 N2           7.5540     0.0020     5.3370 nh         1 8XT      -0.595000
     20 N3           3.5920     0.0040     6.5560 nb         1 8XT      -0.736000
     21 O2          10.2500     0.7840     5.4400 os         1 8XT      -0.422600
     22 H1          -0.3610     0.8850     0.5110 hc         1 8XT       0.043700
     23 H2          -0.3610    -0.8840     0.5110 hc         1 8XT       0.043700
     24 H3          -0.3610    -0.0000    -1.0210 hc         1 8XT       0.043700
     25 H4           1.8900     0.8840    -0.5110 h1         1 8XT       0.056200
     26 H5           1.8900    -0.8840    -0.5110 h1         1 8XT       0.056200
     27 H6           7.3230     1.6530     4.0670 h1         1 8XT       0.080700
     28 H7           8.4120     1.9500     6.8910 hc         1 8XT       0.046700
     29 H8           8.2750     3.2840     5.7370 hc         1 8XT       0.046700
     30 H9           6.8200     2.4580     6.3120 hc         1 8XT       0.046700
     31 H10          9.7400     2.2700     4.1060 h1         1 8XT       0.057700
     32 H11          9.4780     0.6130     3.5360 h1         1 8XT       0.057700
     33 H12         10.5350    -0.8100     6.7180 h1         1 8XT       0.056700
     34 H13          9.9530    -1.2280     5.0960 h1         1 8XT       0.056700
     35 H14          8.3660     0.2010     7.2610 h1         1 8XT       0.053700
     36 H15          8.1280    -1.4690     6.7170 h1         1 8XT       0.053700
     37 H16          6.6620     0.0150     7.8480 ha         1 8XT       0.145000
     38 H17          4.2950     0.0160     8.5070 h4         1 8XT       0.024100
     39 H18          1.3690    -0.0190     2.1410 hn         1 8XT       0.306500
     40 H19          5.9930    -0.0980     2.7250 ha         1 8XT       0.178000
     41 H20          2.0380    -0.0000     4.1530 hn         1 8XT       0.302700
@<TRIPOS>BOND
     1     1     2 1
     2     2    13 1
     3    13     3 1
     4    14     3 2
     5     3    15 1
     6    15    17 1
     7    15    16 2
     8    17    12 1
     9    16    18 1
    10    12    18 ar
    11    12    20 ar
    12     6     5 1
    13    18     4 ar
    14    20    11 ar
    15     5     7 1
    16     5    19 1
    17     4    19 1
    18     4    10 ar
    19    11    10 ar
    20     7    21 1
    21    19     9 1
    22    21     8 1
    23     9     8 1
    24     1    22 1
    25     1    23 1
    26     1    24 1
    27     2    25 1
    28     2    26 1
    29     5    27 1
    30     6    28 1
    31     6    29 1
    32     6    30 1
    33     7    31 1
    34     7    32 1
    35     8    33 1
    36     8    34 1
    37     9    35 1
    38     9    36 1
    39    10    37 1
    40    11    38 1
    41    13    39 1
    42    16    40 1
    43    17    41 1
@<TRIPOS>SUBSTRUCTURE
     1 8XT         1 TEMP              0 ****  ****    0 ROOT
