@<TRIPOS>MOLECULE
8XU
   32    33     1     0     0
SMALL
bcc


@<TRIPOS>ATOM
      1 P            0.0000     0.0000     0.0000 p5         1 8XU       0.669900
      2 OP1          1.4790     0.0000     0.0000 o          1 8XU      -0.754500
      3 OP2         -0.5370     0.0000     1.5180 o          1 8XU      -0.754500
      4 O5'         -0.5370     1.3150    -0.7590 os         1 8XU      -0.472200
      5 C5'         -0.1490     1.6580    -2.0910 c3         1 8XU       0.279400
      6 C4'         -0.8380     2.9600    -2.5040 c3         1 8XU       0.160100
      7 O4'         -0.3160     4.0730    -1.7480 os         1 8XU      -0.331600
      8 C1'         -0.6040     5.2630    -2.5010 c3         1 8XU       0.204500
      9 N1           0.4740     6.2400    -2.3200 n          1 8XU       0.053000
     10 C6           0.1760     7.5090    -1.9070 cc         1 8XU      -0.056400
     11 C2           1.7480     5.8780    -2.5560 c          1 8XU       0.559500
     12 O2           1.9910     4.7420    -2.9170 o          1 8XU      -0.596500
     13 N3           2.7570     6.7540    -2.3980 ns         1 8XU      -0.136500
     14 C4           2.5040     8.0160    -1.9980 c          1 8XU       0.629700
     15 O4           3.4160     8.8110    -1.8540 o          1 8XU      -0.715500
     16 C5           1.1690     8.4090    -1.7400 cd         1 8XU      -0.360200
     17 C2'         -0.6970     4.8550    -3.9830 c3         1 8XU       0.100100
     18 O2'         -1.9860     5.1780    -4.5110 oh         1 8XU      -0.582800
     19 C3'         -0.4900     3.3190    -3.9710 c3         1 8XU       0.135100
     20 O3'          0.8670     2.9850    -4.2670 oh         1 8XU      -0.514800
     21 O1          -0.5370    -1.3140    -0.7590 o          1 8XU      -0.754500
     22 H5''         0.9260     1.7900    -2.1310 h1         1 8XU      -0.008300
     23 H5'         -0.4410     0.8640    -2.7680 h1         1 8XU      -0.008300
     24 H4'         -1.9110     2.8860    -2.3770 h1         1 8XU       0.018700
     25 H1'         -1.5480     5.6840    -2.1760 h2         1 8XU       0.031700
     26 H6          -0.8520     7.7920    -1.7140 h4         1 8XU       0.122000
     27 H3           3.6990     6.4670    -2.5780 hn         1 8XU       0.199500
     28 H5           0.9460     9.4180    -1.4160 ha         1 8XU       0.136000
     29 H2'          0.0860     5.3360    -4.5570 h1         1 8XU       0.012700
     30 HO2'        -1.8870     5.5870    -5.3540 ho         1 8XU       0.373000
     31 H3'         -1.1740     2.8340    -4.6570 h1         1 8XU       0.007700
     32 H2           0.9150     2.5910    -5.1220 ho         1 8XU       0.355000
@<TRIPOS>BOND
     1     1     2 1   
     2     1     3 1   
     3     1     4 1   
     4     1    21 1   
     5     4     5 1   
     6     5     6 1   
     7     5    22 1   
     8     5    23 1   
     9     6     7 1   
    10     6    19 1   
    11     6    24 1   
    12     7     8 1   
    13     8     9 1   
    14     8    17 1   
    15     8    25 1   
    16     9    10 1   
    17     9    11 1   
    18    10    16 2   
    19    10    26 1   
    20    11    12 2   
    21    11    13 1   
    22    13    14 1   
    23    13    27 1   
    24    14    15 2   
    25    14    16 1   
    26    16    28 1   
    27    17    18 1   
    28    17    19 1   
    29    17    29 1   
    30    18    30 1   
    31    19    20 1   
    32    19    31 1   
    33    20    32 1   
@<TRIPOS>SUBSTRUCTURE
     1 8XU         1 TEMP              0 ****  ****    0 ROOT
