@<TRIPOS>MOLECULE
8XV
   57    61     1     0     0
SMALL
bcc


@<TRIPOS>ATOM
      1 C17          0.0000     0.0000     0.0000 ca         1 8XV      -0.046400
      2 C16          1.4060     0.0000     0.0000 ca         1 8XV      -0.160800
      3 C15          2.1200     0.0000     1.2820 cc         1 8XV       0.309900
      4 C19         -0.0490    -0.0000     2.3770 c          1 8XV       0.638700
      5 C20          2.1050    -0.0000    -1.2110 ca         1 8XV      -0.061000
      6 C21          1.4080    -0.0020    -2.4000 ca         1 8XV       0.081900
      7 C22          0.0180    -0.0010    -2.3970 ca         1 8XV      -0.056000
      8 C23         -0.6830    -0.0050    -1.2120 ca         1 8XV      -0.141000
      9 C27         -4.1950    -1.4420     1.1500 cx         1 8XV      -0.121700
     10 C33          2.4460    -2.1260    12.2080 c          1 8XV       0.285100
     11 C1           2.8360    -0.1350     6.5400 ca         1 8XV      -0.155500
     12 C2           2.0770    -1.1270     5.9300 ca         1 8XV       0.073600
     13 C3           1.5290    -2.1420     6.7050 ca         1 8XV      -0.111000
     14 C4           1.7400    -2.1600     8.0680 ca         1 8XV      -0.132000
     15 C5           2.5000    -1.1680     8.6710 ca         1 8XV       0.051100
     16 C6           3.0490    -0.1520     7.9000 ca         1 8XV       0.052000
     17 O7           2.7060    -1.1910    10.0160 os         1 8XV      -0.269900
     18 S8           3.5120     1.1500     5.5380 sy         1 8XV       1.099700
     19 N9           2.7300     1.0500     4.0790 ne         1 8XV      -0.602300
     20 C10          2.0360    -0.0000     3.7660 cf         1 8XV       0.706500
     21 N11          1.8720    -1.1040     4.5500 nu         1 8XV      -0.265600
     22 C14          1.3650     0.0000     2.4540 cd         1 8XV      -0.387800
     23 N18         -0.6900    -0.0010     1.1960 n          1 8XV       0.096000
     24 F24          2.0780    -0.0020    -3.5720 f          1 8XV      -0.116900
     25 C25         -2.1540    -0.0000     1.1780 c3         1 8XV       0.003000
     26 C26         -2.6640    -1.4420     1.1700 c3         1 8XV      -0.003400
     27 O28         -0.7000    -0.0000     3.4070 o          1 8XV      -0.710500
     28 O29          3.4690     0.0000     1.3260 oh         1 8XV      -0.489100
     29 C30         -4.9030    -2.7940     1.2590 cx         1 8XV      -0.075400
     30 C31         -4.8850    -2.0440    -0.0740 cx         1 8XV      -0.075400
     31 C32          2.1120    -2.2660    10.7450 c3         1 8XV       0.154400
     32 N34          1.9880    -3.0330    13.0940 nz         1 8XV       0.205600
     33 O35          3.1270    -1.1960    12.5880 o          1 8XV      -0.350100
     34 H40          3.1880    -0.0010    -1.2150 ha         1 8XV       0.131000
     35 H41         -0.5200    -0.0020    -3.3380 ha         1 8XV       0.126000
     36 H42         -1.7660    -0.0040    -1.2230 ha         1 8XV       0.136000
     37 H47         -4.7240    -0.6150     1.6080 hc         1 8XV       0.064700
     38 H36          0.9350    -2.9190     6.2380 ha         1 8XV       0.120000
     39 H37          1.3120    -2.9530     8.6700 ha         1 8XV       0.095000
     40 H38          3.6420     0.6250     8.3680 ha         1 8XV       0.134000
     41 H39          1.5870    -1.9540     4.1060 hn         1 8XV       0.301800
     42 H44         -2.5260     0.5090     2.0580 h1         1 8XV       0.053200
     43 H43         -2.5050     0.5110     0.2900 h1         1 8XV       0.053200
     44 H46         -2.2910    -1.9530     0.2900 hc         1 8XV       0.024200
     45 H45         -2.3150    -1.9540     2.0590 hc         1 8XV       0.024200
     46 H48          3.7920     0.8540     1.0890 ho         1 8XV       0.442000
     47 H50         -5.8480    -2.7850     1.7880 hc         1 8XV       0.046700
     48 H49         -4.2530    -3.6590     1.3180 hc         1 8XV       0.046700
     49 H51         -5.8200    -1.5770    -0.3600 hc         1 8XV       0.046700
     50 H52         -4.2250    -2.4510    -0.8310 hc         1 8XV       0.046700
     51 H54          2.4960    -3.2090    10.3760 h1         1 8XV       0.037700
     52 H53          1.0370    -2.2390    10.6160 h1         1 8XV       0.037700
     53 H55          2.3350    -3.9400    12.8520 hn         1 8XV       0.247133
     54 H56          0.9880    -3.0420    13.0750 hn         1 8XV       0.247133
     55 O12          3.1160     2.3780     6.1310 o          1 8XV      -0.565800
     56 H343         2.3020    -2.7900    14.0120 hn         1 8XV       0.247133
     57 O13          4.8680     0.8020     5.2950 o          1 8XV      -0.565800
@<TRIPOS>BOND
     1     1     2 ar  
     2     1     8 ar  
     3     1    23 1   
     4     2     3 1   
     5     2     5 ar  
     6     3    22 2   
     7     3    28 1   
     8     4    22 1   
     9     4    23 1   
    10     4    27 2   
    11     5     6 ar  
    12     5    34 1   
    13     6     7 ar  
    14     6    24 1   
    15     7     8 ar  
    16     7    35 1   
    17     8    36 1   
    18     9    26 1   
    19     9    29 1   
    20     9    30 1   
    21     9    37 1   
    22    10    31 1   
    23    10    32 1   
    24    10    33 2   
    25    11    12 ar  
    26    11    16 ar  
    27    11    18 1   
    28    12    13 ar  
    29    12    21 1   
    30    13    14 ar  
    31    13    38 1   
    32    14    15 ar  
    33    14    39 1   
    34    15    16 ar  
    35    15    17 1   
    36    16    40 1   
    37    17    31 1   
    38    18    19 1   
    39    18    55 2   
    40    18    57 2   
    41    19    20 2   
    42    20    21 1   
    43    20    22 1   
    44    21    41 1   
    45    23    25 1   
    46    25    26 1   
    47    25    42 1   
    48    25    43 1   
    49    26    44 1   
    50    26    45 1   
    51    28    46 1   
    52    29    30 1   
    53    29    47 1   
    54    29    48 1   
    55    30    49 1   
    56    30    50 1   
    57    31    51 1   
    58    31    52 1   
    59    32    53 1   
    60    32    54 1   
    61    32    56 1   
@<TRIPOS>SUBSTRUCTURE
     1 8XV         1 TEMP              0 ****  ****    0 ROOT
