@<TRIPOS>MOLECULE
molecule
   57    61     1     0     0
SMALL
bcc


@<TRIPOS>ATOM
      1 C17          0.0000     0.0000     0.0000 ca         1 8XV       0.100600
      2 C16          1.4060     0.0000     0.0000 ca         1 8XV      -0.158800
      3 C15          2.1200     0.0000     1.2820 cc         1 8XV       0.284900
      4 C19         -0.0490    -0.0000     2.3770 c          1 8XV       0.721700
      5 C20          2.1050    -0.0000    -1.2110 ca         1 8XV      -0.101000
      6 C21          1.4080    -0.0020    -2.4000 ca         1 8XV       0.107900
      7 C22          0.0180    -0.0010    -2.3970 ca         1 8XV      -0.095000
      8 C23         -0.6830    -0.0050    -1.2120 ca         1 8XV      -0.160000
      9 C27         -4.1950    -1.4420     1.1500 cx         1 8XV      -0.147700
     10 C33          2.4460    -2.1260    12.2080 c          1 8XV       0.463100
     11 C1           2.8360    -0.1350     6.5400 ca         1 8XV      -0.298500
     12 C2           2.0770    -1.1270     5.9300 ca         1 8XV       0.225600
     13 C3           1.5290    -2.1420     6.7050 ca         1 8XV      -0.136000
     14 C4           1.7400    -2.1600     8.0680 ca         1 8XV      -0.147000
     15 C5           2.5000    -1.1680     8.6710 ca         1 8XV       0.058100
     16 C6           3.0490    -0.1520     7.9000 ca         1 8XV       0.013000
     17 O7           2.7060    -1.1910    10.0160 os         1 8XV      -0.293900
     18 S8           3.5120     1.1500     5.5380 sy         1 8XV       1.414700
     19 N9           2.7300     1.0500     4.0790 ne         1 8XV      -0.750300
     20 C10          2.0360    -0.0000     3.7660 cf         1 8XV       0.868500
     21 N11          1.8720    -1.1040     4.5500 nu         1 8XV      -0.737600
     22 C14          1.3650     0.0000     2.4540 cd         1 8XV      -0.347800
     23 N18         -0.6900    -0.0010     1.1960 n          1 8XV      -0.328000
     24 F24          2.0780    -0.0020    -3.5720 f          1 8XV      -0.125900
     25 C25         -2.1540    -0.0000     1.1780 c3         1 8XV       0.092000
     26 C26         -2.6640    -1.4420     1.1700 c3         1 8XV      -0.066400
     27 O28         -0.7000    -0.0000     3.4070 o          1 8XV      -0.649500
     28 O29          3.4690     0.0000     1.3260 oh         1 8XV      -0.504100
     29 C30         -4.9030    -2.7940     1.2590 cx         1 8XV      -0.131900
     30 C31         -4.8850    -2.0440    -0.0740 cx         1 8XV      -0.131900
     31 C32          2.1120    -2.2660    10.7450 c3         1 8XV       0.079400
     32 N34          1.9880    -3.0330    13.0940 nz         1 8XV      -0.682400
     33 O35          3.1270    -1.1960    12.5880 o          1 8XV      -0.345100
     34 H40          3.1880    -0.0010    -1.2150 ha         1 8XV       0.164000
     35 H41         -0.5200    -0.0020    -3.3380 ha         1 8XV       0.161000
     36 H42         -1.7660    -0.0040    -1.2230 ha         1 8XV       0.159000
     37 H47         -4.7240    -0.6150     1.6080 hc         1 8XV       0.086700
     38 H36          0.9350    -2.9190     6.2380 ha         1 8XV       0.150000
     39 H37          1.3120    -2.9530     8.6700 ha         1 8XV       0.117000
     40 H38          3.6420     0.6250     8.3680 ha         1 8XV       0.172000
     41 H39          1.5870    -1.9540     4.1060 hn         1 8XV       0.470800
     42 H44         -2.5260     0.5090     2.0580 h1         1 8XV       0.078700
     43 H43         -2.5050     0.5110     0.2900 h1         1 8XV       0.078700
     44 H46         -2.2910    -1.9530     0.2900 hc         1 8XV       0.053700
     45 H45         -2.3150    -1.9540     2.0590 hc         1 8XV       0.053700
     46 H48          3.7920     0.8540     1.0890 ho         1 8XV       0.463000
     47 H50         -5.8480    -2.7850     1.7880 hc         1 8XV       0.076450
     48 H49         -4.2530    -3.6590     1.3180 hc         1 8XV       0.076450
     49 H51         -5.8200    -1.5770    -0.3600 hc         1 8XV       0.076450
     50 H52         -4.2250    -2.4510    -0.8310 hc         1 8XV       0.076450
     51 H54          2.4960    -3.2090    10.3760 h1         1 8XV       0.080200
     52 H53          1.0370    -2.2390    10.6160 h1         1 8XV       0.080200
     53 H55          2.3350    -3.9400    12.8520 hn         1 8XV       0.480800
     54 H56          0.9880    -3.0420    13.0750 hn         1 8XV       0.480800
     55 O12          3.1160     2.3780     6.1310 o          1 8XV      -0.604800
     56 H343         2.3020    -2.7900    14.0120 hn         1 8XV       0.480800
     57 O13          4.8680     0.8020     5.2950 o          1 8XV      -0.604800
@<TRIPOS>BOND
     1    24     6 1   
     2     7     6 ar  
     3     7     8 ar  
     4     6     5 ar  
     5     8     1 ar  
     6     5     2 ar  
     7     1     2 ar  
     8     1    23 1   
     9     2     3 1   
    10    25    26 1   
    11    25    23 1   
    12    26     9 1   
    13    23     4 1   
    14     3    28 1   
    15     3    22 2   
    16     4    22 1   
    17     4    27 2   
    18     9    29 1   
    19     9    30 1   
    20    22    20 1   
    21    29    30 1   
    22    20    19 2   
    23    20    21 1   
    24    19    18 1   
    25    21    12 1   
    26    55    18 2   
    27    18    11 1   
    28    18    57 2   
    29    12    11 ar  
    30    12    13 ar  
    31    11    16 ar  
    32    13    14 ar  
    33    16    15 ar  
    34    14    15 ar  
    35    15    17 1   
    36    17    31 1   
    37    31    10 1   
    38    32    10 1   
    39    10    33 2   
    40     5    34 1   
    41     7    35 1   
    42     8    36 1   
    43     9    37 1   
    44    13    38 1   
    45    14    39 1   
    46    16    40 1   
    47    21    41 1   
    48    25    42 1   
    49    25    43 1   
    50    26    44 1   
    51    26    45 1   
    52    28    46 1   
    53    29    47 1   
    54    29    48 1   
    55    30    49 1   
    56    30    50 1   
    57    31    51 1   
    58    31    52 1   
    59    32    53 1   
    60    32    54 1   
    61    56    32 1   
@<TRIPOS>SUBSTRUCTURE
     1 8XV         1 TEMP              0 ****  ****    0 ROOT
