@<TRIPOS>MOLECULE
molecule
   39    39     1     0     0
SMALL
bcc


@<TRIPOS>ATOM
      1 CAA          0.0000     0.0000     0.0000 c3         1 8XW      -0.177100
      2 CAB          1.5070     0.0000     0.0000 c          1 8XW       0.487700
      3 OAC          2.1140     0.0000     1.0510 o          1 8XW      -0.618100
      4 SAD          2.3640    -0.0010    -1.4820 ss         1 8XW      -0.093700
      5 CAE          4.0640    -0.0010    -0.8620 c3         1 8XW       0.048700
      6 CAF          5.0360    -0.0000    -2.0440 c3         1 8XW      -0.222900
      7 PAQ          4.8880    -1.5730    -2.9530 p5         1 8XW       1.032700
      8 OAS          3.4760    -1.7860    -3.3430 o          1 8XW      -0.892500
      9 OAT          5.8070    -1.5180    -4.2750 o          1 8XW      -0.892500
     10 OAR          5.3740    -2.7850    -2.0120 o          1 8XW      -0.892500
     11 CAG          6.4680     0.1560    -1.5250 c3         1 8XW      -0.027400
     12 CAH          7.4320     0.2550    -2.7090 c3         1 8XW      -0.099400
     13 CAI          8.8430     0.5460    -2.1960 c3         1 8XW      -0.073400
     14 CAJ          9.8060     0.6450    -3.3800 c3         1 8XW      -0.044100
     15 CAK         11.1970     0.9300    -2.8740 ca         1 8XW      -0.048300
     16 CAL         12.0490    -0.1140    -2.5670 ca         1 8XW      -0.129000
     17 CAM         13.3240     0.1490    -2.1020 ca         1 8XW      -0.138000
     18 CAN         13.7480     1.4550    -1.9460 ca         1 8XW      -0.161000
     19 CAO         12.8960     2.5000    -2.2540 ca         1 8XW      -0.138000
     20 CAP         11.6230     2.2380    -2.7230 ca         1 8XW      -0.129000
     21 HAB         -0.3610     0.6330     0.8010 hc         1 8XW       0.038367
     22 HAC         -0.3610    -1.0110     0.1480 hc         1 8XW       0.038367
     23 HAA         -0.3610     0.3770    -0.9490 hc         1 8XW       0.038367
     24 HAG          4.8000     0.8240    -2.7060 hc         1 8XW       0.037700
     25 HAH          6.5390     1.0560    -0.9260 hc         1 8XW       0.012200
     26 HAI          6.7280    -0.7030    -0.9180 hc         1 8XW       0.012200
     27 HAJ          7.4320    -0.6820    -3.2540 hc         1 8XW       0.084700
     28 HAK          7.1150     1.0550    -3.3670 hc         1 8XW       0.084700
     29 HAL          9.1610    -0.2550    -1.5390 hc         1 8XW       0.022700
     30 HAM          8.8440     1.4820    -1.6510 hc         1 8XW       0.022700
     31 HAN          9.8050    -0.2900    -3.9260 hc         1 8XW       0.056700
     32 HAO          9.4900     1.4470    -4.0370 hc         1 8XW       0.056700
     33 HAP         11.7170    -1.1380    -2.6880 ha         1 8XW       0.136500
     34 HAQ         13.9920    -0.6690    -1.8610 ha         1 8XW       0.110500
     35 HAR         14.7470     1.6610    -1.5800 ha         1 8XW       0.105000
     36 HAS         13.2290     3.5230    -2.1330 ha         1 8XW       0.110500
     37 HAT         10.9550     3.0560    -2.9640 ha         1 8XW       0.136500
     38 HAE          4.2280     0.8840    -0.2590 h1         1 8XW       0.050700
     39 HAF          4.2290    -0.8850    -0.2590 h1         1 8XW       0.050700
@<TRIPOS>BOND
     1     1     2 1   
     2     2     3 2   
     3     2     4 1   
     4     4     5 1   
     5     5     6 1   
     6     6     7 1   
     7     6    11 1   
     8     7     8 1   
     9     7     9 1   
    10     7    10 1   
    11    11    12 1   
    12    12    13 1   
    13    13    14 1   
    14    14    15 1   
    15    15    16 ar  
    16    15    20 ar  
    17    16    17 ar  
    18    17    18 ar  
    19    18    19 ar  
    20    19    20 ar  
    21     1    21 1   
    22     1    22 1   
    23     1    23 1   
    24     5    38 1   
    25     5    39 1   
    26     6    24 1   
    27    11    25 1   
    28    11    26 1   
    29    12    27 1   
    30    12    28 1   
    31    13    29 1   
    32    13    30 1   
    33    14    31 1   
    34    14    32 1   
    35    16    33 1   
    36    17    34 1   
    37    18    35 1   
    38    19    36 1   
    39    20    37 1   
@<TRIPOS>SUBSTRUCTURE
     1 8XW         1 TEMP              0 ****  ****    0 ROOT
