@<TRIPOS>MOLECULE
8XX
   52    55     1     0     0
SMALL
bcc


@<TRIPOS>ATOM
      1 C10          0.0000     0.0000     0.0000 ca         1 8XX      -0.076500
      2 C13         -2.2250     0.6840     5.9540 ca         1 8XX      -0.099000
      3 C15         -4.1890     0.2480     7.2560 ca         1 8XX      -0.068400
      4 C20         -6.9820     0.5490     4.5250 cx         1 8XX      -0.071400
      5 C21         -6.2640    -1.5350     7.6670 c3         1 8XX       0.060500
      6 C22         -7.7400    -1.9190     7.7960 c3         1 8XX       0.009900
      7 C02         -2.0340    -0.1470     3.6170 c          1 8XX       0.602700
      8 C04          0.0320     0.1520     4.8730 c3         1 8XX       0.010300
      9 C05          0.0030    -0.0040     2.3980 ca         1 8XX      -0.085400
     10 C06          1.3920    -0.0090     2.3940 ca         1 8XX      -0.155500
     11 C07          2.0780     0.0000     1.1950 ca         1 8XX      -0.076500
     12 C08          1.3830     0.0000     0.0000 ca         1 8XX      -0.112300
     13 C09          2.1340    -0.0020    -1.3060 c3         1 8XX       0.067200
     14 C11         -0.6910     0.0000     1.1950 ca         1 8XX      -0.155500
     15 C12         -2.7850    -0.0120     4.8800 ca         1 8XX      -0.179600
     16 C14         -2.9260     0.8090     7.1350 ca         1 8XX      -0.145000
     17 C16         -4.7550    -0.4530     6.1890 ca         1 8XX      -0.035400
     18 C18         -7.0710    -0.0620     5.9260 cx         1 8XX       0.022500
     19 C19         -8.0570    -0.4940     4.8380 cx         1 8XX      -0.071400
     20 C23         -5.9340    -0.4720     8.6830 c          1 8XX       0.582500
     21 C27         -4.0550    -0.5820     5.0030 ca         1 8XX       0.007000
     22 N03         -0.6940    -0.0040     3.6100 n          1 8XX       0.037000
     23 N17         -6.0270    -1.0190     6.3150 nh         1 8XX      -0.330000
     24 N24         -4.9020     0.3690     8.4540 n          1 8XX       0.008000
     25 O01         -2.6250    -0.3880     2.5810 o          1 8XX      -0.636100
     26 O26         -6.5910    -0.3710     9.6970 o          1 8XX      -0.650500
     27 H101        -0.5410     0.0020    -0.9380 ha         1 8XX       0.105000
     28 H131        -1.2730     1.1860     5.8350 ha         1 8XX       0.140000
     29 H202        -7.3340     1.5700     4.4370 hc         1 8XX       0.052700
     30 H201        -6.1570     0.2020     3.9150 hc         1 8XX       0.052700
     31 H211        -5.6410    -2.4040     7.8380 h1         1 8XX       0.058700
     32 H222        -8.0470    -2.4700     6.9150 hc         1 8XX       0.019700
     33 H223        -8.3400    -1.0220     7.8890 hc         1 8XX       0.019700
     34 H221        -7.8760    -2.5380     8.6750 hc         1 8XX       0.019700
     35 H043         0.1880     1.2060     5.0710 h1         1 8XX       0.032033
     36 H041         0.9900    -0.3490     4.8030 h1         1 8XX       0.032033
     37 H042        -0.5470    -0.2850     5.6780 h1         1 8XX       0.032033
     38 H061         1.9370    -0.0110     3.3300 ha         1 8XX       0.150500
     39 H071         3.1610    -0.0020     1.1910 ha         1 8XX       0.105000
     40 H093         1.4390    -0.1560    -2.1230 hc         1 8XX       0.005700
     41 H092         2.6370     0.9490    -1.4350 hc         1 8XX       0.005700
     42 H091         2.8680    -0.7990    -1.3000 hc         1 8XX       0.005700
     43 H111        -1.7740     0.0030     1.1940 ha         1 8XX       0.150500
     44 H141        -2.4920     1.3490     7.9680 ha         1 8XX       0.119000
     45 H181        -7.4880     0.5940     6.6810 h1         1 8XX       0.062700
     46 H191        -9.0650    -0.1110     4.9410 hc         1 8XX       0.052700
     47 H192        -7.8880    -1.4790     4.4180 hc         1 8XX       0.052700
     48 H252        -5.3560     1.5330    10.1330 h1         1 8XX       0.023033
     49 H253        -3.6580     1.0620     9.9880 h1         1 8XX       0.023033
     50 H251        -4.3200     2.3210     8.9360 h1         1 8XX       0.023033
     51 H271        -4.4910    -1.1220     4.1720 ha         1 8XX       0.139000
     52 C25         -4.5350     1.3880     9.4420 c3         1 8XX       0.061300
@<TRIPOS>BOND
     1     1    12 ar  
     2     1    14 ar  
     3     1    27 1   
     4     2    15 ar  
     5     2    16 ar  
     6     2    28 1   
     7     3    16 ar  
     8     3    17 ar  
     9     3    24 1   
    10     4    18 1   
    11     4    19 1   
    12     4    29 1   
    13     4    30 1   
    14     5     6 1   
    15     5    20 1   
    16     5    23 1   
    17     5    31 1   
    18     6    32 1   
    19     6    33 1   
    20     6    34 1   
    21     7    15 1   
    22     7    22 1   
    23     7    25 2   
    24     8    22 1   
    25     8    35 1   
    26     8    36 1   
    27     8    37 1   
    28     9    10 ar  
    29     9    14 ar  
    30     9    22 1   
    31    10    11 ar  
    32    10    38 1   
    33    11    12 ar  
    34    11    39 1   
    35    12    13 1   
    36    13    40 1   
    37    13    41 1   
    38    13    42 1   
    39    14    43 1   
    40    15    21 ar  
    41    16    44 1   
    42    17    21 ar  
    43    17    23 1   
    44    18    19 1   
    45    18    23 1   
    46    18    45 1   
    47    19    46 1   
    48    19    47 1   
    49    20    24 1   
    50    20    26 2   
    51    21    51 1   
    52    24    52 1   
    53    48    52 1   
    54    49    52 1   
    55    50    52 1   
@<TRIPOS>SUBSTRUCTURE
     1 8XX         1 TEMP              0 ****  ****    0 ROOT
