@<TRIPOS>MOLECULE
molecule
   36    36     1     0     0
SMALL
bcc


@<TRIPOS>ATOM
      1 CAA          0.0000     0.0000     0.0000 c3         1 8XZ      -0.177100
      2 CAB          1.5070     0.0000     0.0000 c          1 8XZ       0.460700
      3 OAC          2.1130     0.0000     1.0500 o          1 8XZ      -0.635100
      4 SAD          2.3630     0.0000    -1.4820 ss         1 8XZ      -0.056700
      5 CAE          4.0630     0.0000    -0.8640 c3         1 8XZ       0.037700
      6 CAF          5.0360     0.0010    -2.0440 c3         1 8XZ      -0.227900
      7 PAP          4.7590    -1.4870    -3.0610 p5         1 8XZ       1.040700
      8 OAQ          5.1030    -2.6930    -2.2740 o          1 8XZ      -0.878833
      9 OAR          3.2110    -1.5570    -3.4990 o          1 8XZ      -0.878833
     10 OAS          5.6870    -1.4210    -4.3740 o          1 8XZ      -0.878833
     11 CAG          6.4740     0.0010    -1.5220 c3         1 8XZ      -0.028400
     12 CAH          7.4430     0.1540    -2.6950 c3         1 8XZ      -0.093400
     13 CAI          8.8710     0.2900    -2.1630 c3         1 8XZ      -0.046100
     14 CAJ          9.8270     0.4410    -3.3190 ca         1 8XZ      -0.035300
     15 CAK         10.1340     1.6990    -3.8020 ca         1 8XZ      -0.120500
     16 CAL         11.0100     1.8370    -4.8620 ca         1 8XZ      -0.137500
     17 CAM         11.5790     0.7170    -5.4380 ca         1 8XZ      -0.161000
     18 CAN         11.2730    -0.5410    -4.9550 ca         1 8XZ      -0.137500
     19 CAO         10.3990    -0.6790    -3.8910 ca         1 8XZ      -0.120500
     20 HAB         -0.3610    -1.0210    -0.0250 hc         1 8XZ       0.034700
     21 HAC         -0.3610     0.4890     0.8970 hc         1 8XZ       0.034700
     22 HAA         -0.3610     0.5320    -0.8720 hc         1 8XZ       0.034700
     23 HAH          6.6070     0.8260    -0.8330 hc         1 8XZ       0.011200
     24 HAI          6.6710    -0.9330    -1.0090 hc         1 8XZ       0.011200
     25 HAJ          7.3780    -0.7190    -3.3340 hc         1 8XZ       0.088200
     26 HAK          7.1850     1.0380    -3.2640 hc         1 8XZ       0.088200
     27 HAL          8.9360     1.1620    -1.5240 hc         1 8XZ       0.028700
     28 HAM          9.1300    -0.5950    -1.5930 hc         1 8XZ       0.028700
     29 HAN          9.6880     2.5770    -3.3500 ha         1 8XZ       0.135000
     30 HAO         11.2510     2.8230    -5.2410 ha         1 8XZ       0.107000
     31 HAP         12.2640     0.8250    -6.2700 ha         1 8XZ       0.101000
     32 HAQ         11.7200    -1.4180    -5.4050 ha         1 8XZ       0.107000
     33 HAR         10.1590    -1.6650    -3.5120 ha         1 8XZ       0.135000
     34 HAE          4.2280    -0.8840    -0.2610 h1         1 8XZ       0.045700
     35 HAF          4.2280     0.8850    -0.2600 h1         1 8XZ       0.045700
     36 HAG          4.8710     0.8860    -2.6470 hc         1 8XZ       0.039700
@<TRIPOS>BOND
     1     1     2 1
     2     2     3 2
     3     2     4 1
     4     4     5 1
     5     5     6 1
     6     6     7 1
     7     6    11 1
     8     7     8 1
     9     7     9 1
    10     7    10 1
    11    11    12 1
    12    12    13 1
    13    13    14 1
    14    14    15 ar
    15    14    19 ar
    16    15    16 ar
    17    16    17 ar
    18    17    18 ar
    19    18    19 ar
    20     1    20 1
    21     1    21 1
    22     1    22 1
    23     5    34 1
    24     5    35 1
    25     6    36 1
    26    11    23 1
    27    11    24 1
    28    12    25 1
    29    12    26 1
    30    13    27 1
    31    13    28 1
    32    15    29 1
    33    16    30 1
    34    17    31 1
    35    18    32 1
    36    19    33 1
@<TRIPOS>SUBSTRUCTURE
     1 8XZ         1 TEMP              0 ****  ****    0 ROOT
