@<TRIPOS>MOLECULE
molecule
  105   108     1     0     0
SMALL
bcc


@<TRIPOS>ATOM
      1 F2           0.0000     0.0000     0.0000 f          1 8Y0      -0.212633
      2 C40          1.3990     0.0000     0.0000 c3         1 8Y0       0.550900
      3 F            1.8660     0.0000     1.3190 f          1 8Y0      -0.212633
      4 F1           1.8660    -1.1420    -0.6590 f          1 8Y0      -0.212633
      5 C38          1.9020     1.2300    -0.7100 c          1 8Y0       0.613100
      6 O2           1.1140     2.0290    -1.1710 o          1 8Y0      -0.549100
      7 N5           3.2270     1.4440    -0.8320 ns         1 8Y0      -0.562900
      8 C37          3.7160     2.6400    -1.5230 c3         1 8Y0       0.111000
      9 C36          5.2460     2.6400    -1.5220 c3         1 8Y0      -0.100400
     10 C35          5.7570     3.8890    -2.2430 c3         1 8Y0      -0.080400
     11 C34          7.2860     3.8890    -2.2420 c3         1 8Y0      -0.066400
     12 C33          7.7970     5.1380    -2.9630 c3         1 8Y0      -0.155400
     13 C32          9.3030     5.1390    -2.9630 c          1 8Y0       0.676100
     14 O1           9.9090     4.2290    -2.4370 o          1 8Y0      -0.600100
     15 N4           9.9780     6.1500    -3.5460 n          1 8Y0      -0.405000
     16 C21         11.4350     6.1900    -3.5750 c3         1 8Y0       0.160300
     17 C20         12.0250     6.6160    -2.2550 ca         1 8Y0      -0.057300
     18 C27         13.3500     6.1990    -2.0940 ca         1 8Y0      -0.128000
     19 C26         14.0810     6.5120    -0.9730 ca         1 8Y0      -0.114000
     20 C25         13.4900     7.2700     0.0230 ca         1 8Y0      -0.130000
     21 C24         12.1920     7.6750    -0.1170 ca         1 8Y0      -0.163000
     22 C19         11.4160     7.3400    -1.2620 ca         1 8Y0       0.003000
     23 C17         10.0320     7.8220    -1.1260 cc         1 8Y0      -0.140600
     24 C22          9.3190     7.2210    -4.1640 ca         1 8Y0       0.038600
     25 C28          9.1120     7.2080    -5.5380 ca         1 8Y0      -0.134000
     26 C29          8.4990     8.2890    -6.1440 ca         1 8Y0      -0.122000
     27 C30          8.0960     9.3800    -5.3950 ca         1 8Y0      -0.128000
     28 C31          8.2840     9.3930    -4.0260 ca         1 8Y0      -0.089000
     29 C23          8.8810     8.2960    -3.4100 ca         1 8Y0      -0.097500
     30 C18          9.0120     8.2270    -1.9250 cd         1 8Y0       0.336800
     31 N2           7.9840     8.5890    -1.1180 nd         1 8Y0      -0.373000
     32 N3           8.3260     8.3990     0.0990 nc         1 8Y0      -0.177800
     33 N1           9.5160     7.9390     0.1660 na         1 8Y0       0.104400
     34 C6          10.2260     7.5900     1.3980 c3         1 8Y0       0.045300
     35 C5           9.2290     7.0410     2.4220 c3         1 8Y0      -0.098400
     36 C4           9.9840     6.5630     3.6630 c3         1 8Y0      -0.082400
     37 C3           8.9880     6.0150     4.6870 c3         1 8Y0      -0.079400
     38 C2           9.7430     5.5370     5.9290 c3         1 8Y0      -0.082400
     39 C1           8.7470     4.9890     6.9520 c3         1 8Y0      -0.081400
     40 C            9.5020     4.5120     8.1940 c3         1 8Y0      -0.082400
     41 C7           8.5060     3.9630     9.2180 c3         1 8Y0      -0.082400
     42 C8           9.2610     3.4850    10.4590 c3         1 8Y0      -0.081400
     43 C9           8.2650     2.9360    11.4830 c3         1 8Y0      -0.082400
     44 C10          9.0200     2.4580    12.7240 c3         1 8Y0      -0.078400
     45 C11          8.0240     1.9100    13.7480 c3         1 8Y0      -0.055200
     46 C12          8.7680     1.4400    14.9710 c2         1 8Y0      -0.121200
     47 C13          8.4420     1.9150    16.1750 ce         1 8Y0      -0.244200
     48 C14          9.1660     1.4560    17.3660 c          1 8Y0       0.477000
     49 O           10.0640     0.6430    17.2560 o          1 8Y0      -0.517100
     50 C15          8.8040     1.9840    18.7030 ce         1 8Y0       0.287200
     51 N            9.4360     1.5840    19.7420 n2         1 8Y0      -0.465900
     52 C16          9.0770     2.1050    21.0640 c3         1 8Y0      -0.015200
     53 C39          8.5340     0.9870    21.9140 c          1 8Y0       0.897600
     54 O3           8.1390     1.2330    23.1730 o          1 8Y0      -0.828800
     55 O4           8.4530    -0.1310    21.4630 o          1 8Y0      -0.828800
     56 H1           3.8770     0.7790    -0.4620 hn         1 8Y0       0.327500
     57 H2           3.3540     3.5240    -1.0120 h1         1 8Y0       0.059700
     58 H3           3.3550     2.6400    -2.5440 h1         1 8Y0       0.059700
     59 H4           5.6070     1.7550    -2.0330 hc         1 8Y0       0.050700
     60 H5           5.6070     2.6400    -0.5000 hc         1 8Y0       0.050700
     61 H6           5.3960     3.8900    -3.2640 hc         1 8Y0       0.047200
     62 H7           5.3960     4.7740    -1.7320 hc         1 8Y0       0.047200
     63 H8           7.6470     3.0040    -2.7530 hc         1 8Y0       0.056700
     64 H9           7.6470     3.8880    -1.2210 hc         1 8Y0       0.056700
     65 H10          7.4350     6.0230    -2.4530 hc         1 8Y0       0.072200
     66 H11          7.4360     5.1380    -3.9850 hc         1 8Y0       0.072200
     67 H12         11.7380     6.9070    -4.3290 h1         1 8Y0       0.071700
     68 H13         11.7970     5.1950    -3.8020 h1         1 8Y0       0.071700
     69 H14         13.8140     5.6110    -2.8760 ha         1 8Y0       0.134000
     70 H15         15.0290     6.0210    -0.7900 ha         1 8Y0       0.137000
     71 H16         14.0880     7.6430     0.8470 ha         1 8Y0       0.135000
     72 H17         11.7430     8.2760     0.6640 ha         1 8Y0       0.145000
     73 H18          9.4250     6.3560    -6.1300 ha         1 8Y0       0.141000
     74 H19          8.3470     8.2880    -7.2160 ha         1 8Y0       0.133000
     75 H20          7.6170    10.2210    -5.8820 ha         1 8Y0       0.136000
     76 H21          7.9700    10.2470    -3.4380 ha         1 8Y0       0.153000
     77 H22         10.9740     6.8360     1.1830 h1         1 8Y0       0.078700
     78 H23         10.7070     8.4730     1.8000 h1         1 8Y0       0.078700
     79 H24          8.6850     6.2110     1.9880 hc         1 8Y0       0.065200
     80 H25          8.5320     7.8220     2.7020 hc         1 8Y0       0.065200
     81 H26         10.5280     7.3940     4.0970 hc         1 8Y0       0.042700
     82 H27         10.6810     5.7830     3.3840 hc         1 8Y0       0.042700
     83 H28          8.2910     6.7960     4.9670 hc         1 8Y0       0.045200
     84 H29          8.4440     5.1850     4.2530 hc         1 8Y0       0.045200
     85 H30         10.2870     6.3680     6.3620 hc         1 8Y0       0.041700
     86 H31         10.4400     4.7560     5.6490 hc         1 8Y0       0.041700
     87 H32          8.2030     4.1590     6.5190 hc         1 8Y0       0.041700
     88 H33          8.0500     5.7700     7.2320 hc         1 8Y0       0.041700
     89 H34         10.0460     5.3420     8.6280 hc         1 8Y0       0.041200
     90 H35         10.1990     3.7310     7.9140 hc         1 8Y0       0.041200
     91 H36          7.8090     4.7440     9.4970 hc         1 8Y0       0.040700
     92 H37          7.9620     3.1330     8.7840 hc         1 8Y0       0.040700
     93 H38          9.9580     2.7050    10.1790 hc         1 8Y0       0.041700
     94 H39          9.8040     4.3160    10.8930 hc         1 8Y0       0.041700
     95 H40          7.5680     3.7170    11.7620 hc         1 8Y0       0.040200
     96 H41          7.7220     2.1060    11.0480 hc         1 8Y0       0.040200
     97 H42          9.7170     1.6780    12.4440 hc         1 8Y0       0.045200
     98 H43          9.5640     3.2890    13.1580 hc         1 8Y0       0.045200
     99 H44          7.4810     1.0790    13.3140 hc         1 8Y0       0.047200
    100 H45          7.3270     2.6910    14.0270 hc         1 8Y0       0.047200
    101 H46          9.5680     0.7160    14.8730 ha         1 8Y0       0.148000
    102 H47          7.6420     2.6380    16.2730 ha         1 8Y0       0.127000
    103 H48          8.0030     2.7080    18.8010 h4         1 8Y0      -0.039200
    104 H49          8.3240     2.8760    20.9560 h1         1 8Y0       0.041200
    105 H50          9.9570     2.5240    21.5370 h1         1 8Y0       0.041200
@<TRIPOS>BOND
     1     9     8 1   
     2     9    10 1   
     3     6     5 2   
     4     8     7 1   
     5    10    11 1   
     6     5     7 1   
     7     5     2 1   
     8    36    37 1   
     9    36    35 1   
    10    37    38 1   
    11     4     2 1   
    12    11    12 1   
    13    19    18 ar  
    14    19    20 ar  
    15    18    17 ar  
    16     2     1 1   
    17     2     3 1   
    18    34    35 1   
    19    34    33 1   
    20    20    21 ar  
    21    17    16 1   
    22    17    22 ar  
    23    16    15 1   
    24    12    13 1   
    25    38    39 1   
    26    39    40 1   
    27    21    22 ar  
    28    22    23 1   
    29    42    41 1   
    30    42    43 1   
    31    33    23 1   
    32    33    32 1   
    33    41    40 1   
    34    23    30 2   
    35    13    15 1   
    36    13    14 2   
    37    15    24 1   
    38    43    44 1   
    39    32    31 2   
    40    30    31 1   
    41    30    29 1   
    42    24    25 ar  
    43    24    29 ar  
    44    44    45 1   
    45    25    26 ar  
    46    29    28 ar  
    47    45    46 1   
    48    26    27 ar  
    49    28    27 ar  
    50    46    47 2   
    51    47    48 1   
    52    48    50 1   
    53    48    49 2   
    54    50    51 2   
    55    51    52 1   
    56    52    53 1   
    57    53    55 1   
    58    53    54 1   
    59     7    56 1   
    60     8    57 1   
    61     8    58 1   
    62     9    59 1   
    63     9    60 1   
    64    10    61 1   
    65    10    62 1   
    66    11    63 1   
    67    11    64 1   
    68    12    65 1   
    69    12    66 1   
    70    16    67 1   
    71    16    68 1   
    72    18    69 1   
    73    19    70 1   
    74    20    71 1   
    75    21    72 1   
    76    25    73 1   
    77    26    74 1   
    78    27    75 1   
    79    28    76 1   
    80    34    77 1   
    81    34    78 1   
    82    35    79 1   
    83    35    80 1   
    84    36    81 1   
    85    36    82 1   
    86    37    83 1   
    87    37    84 1   
    88    38    85 1   
    89    38    86 1   
    90    39    87 1   
    91    39    88 1   
    92    40    89 1   
    93    40    90 1   
    94    41    91 1   
    95    41    92 1   
    96    42    93 1   
    97    42    94 1   
    98    43    95 1   
    99    43    96 1   
   100    44    97 1   
   101    44    98 1   
   102    45    99 1   
   103    45   100 1   
   104    46   101 1   
   105    47   102 1   
   106    50   103 1   
   107    52   104 1   
   108    52   105 1   
@<TRIPOS>SUBSTRUCTURE
     1 8Y0         1 TEMP              0 ****  ****    0 ROOT
