@<TRIPOS>MOLECULE
8Y0
  105   110     1     0     0
SMALL
bcc


@<TRIPOS>ATOM
      1 F2           0.0000     0.0000     0.0000 f          1 8Y0      -0.126000
      2 C40          1.3990     0.0000     0.0000 c3         1 8Y0       0.343000
      3 F            1.8660     0.0000     1.3190 f          1 8Y0      -0.126000
      4 F1           1.8660    -1.1420    -0.6590 f          1 8Y0      -0.126000
      5 C38          1.9020     1.2300    -0.7100 c2         1 8Y0       0.150000
      6 O2           1.1140     2.0290    -1.1710 o          1 8Y0      -0.348000
      7 N5           3.2270     1.4440    -0.8320 ns         1 8Y0       0.038000
      8 C37          3.7160     2.6400    -1.5230 c3         1 8Y0      -0.072000
      9 C36          5.2460     2.6400    -1.5220 c3         1 8Y0      -0.119000
     10 C35          5.7570     3.8890    -2.2430 c3         1 8Y0      -0.104000
     11 C34          7.2860     3.8890    -2.2420 c3         1 8Y0      -0.093000
     12 C33          7.7970     5.1380    -2.9630 c3         1 8Y0      -0.137000
     13 C32          9.3030     5.1390    -2.9630 c2         1 8Y0       0.233000
     14 O1           9.9090     4.2290    -2.4370 o          1 8Y0      -0.405000
     15 N4           9.9780     6.1500    -3.5460 n          1 8Y0       0.067000
     16 C21         11.4350     6.1900    -3.5750 c3         1 8Y0      -0.017000
     17 C20         12.0250     6.6160    -2.2550 ca         1 8Y0      -0.057000
     18 C27         13.3500     6.1990    -2.0940 ca         1 8Y0      -0.093000
     19 C26         14.0810     6.5120    -0.9730 ca         1 8Y0      -0.090000
     20 C25         13.4900     7.2700     0.0230 ca         1 8Y0      -0.088000
     21 C24         12.1920     7.6750    -0.1170 ca         1 8Y0      -0.183000
     22 C19         11.4160     7.3400    -1.2620 ca         1 8Y0       0.025000
     23 C17         10.0320     7.8220    -1.1260 c2         1 8Y0      -0.220000
     24 C22          9.3190     7.2210    -4.1640 ca         1 8Y0      -0.089000
     25 C28          9.1120     7.2080    -5.5380 ca         1 8Y0      -0.100000
     26 C29          8.4990     8.2890    -6.1440 ca         1 8Y0      -0.096000
     27 C30          8.0960     9.3800    -5.3950 ca         1 8Y0      -0.093000
     28 C31          8.2840     9.3930    -4.0260 ca         1 8Y0      -0.063000
     29 C23          8.8810     8.2960    -3.4100 ca         1 8Y0       0.021000
     30 C18          9.0120     8.2270    -1.9250 c2         1 8Y0      -0.103000
     31 N2           7.9840     8.5890    -1.1180 n2         1 8Y0      -0.075000
     32 N3           8.3260     8.3990     0.0990 n2         1 8Y0      -0.160000
     33 N1           9.5160     7.9390     0.1660 na         1 8Y0       0.336000
     34 C6          10.2260     7.5900     1.3980 c3         1 8Y0      -0.125000
     35 C5           9.2290     7.0410     2.4220 c3         1 8Y0      -0.120000
     36 C4           9.9840     6.5630     3.6630 c3         1 8Y0      -0.104000
     37 C3           8.9880     6.0150     4.6870 c3         1 8Y0      -0.106000
     38 C2           9.7430     5.5370     5.9290 c3         1 8Y0      -0.108000
     39 C1           8.7470     4.9890     6.9520 c3         1 8Y0      -0.107000
     40 C            9.5020     4.5120     8.1940 c3         1 8Y0      -0.108000
     41 C7           8.5060     3.9630     9.2180 c3         1 8Y0      -0.108000
     42 C8           9.2610     3.4850    10.4590 c3         1 8Y0      -0.108000
     43 C9           8.2650     2.9360    11.4830 c3         1 8Y0      -0.106000
     44 C10          9.0200     2.4580    12.7240 c3         1 8Y0      -0.136000
     45 C11          8.0240     1.9100    13.7480 DU         1 8Y0      -0.040000
     46 C12          8.7680     1.4400    14.9710 c2         1 8Y0      -0.110000
     47 C13          8.4420     1.9150    16.1750 c2         1 8Y0      -0.144000
     48 C14          9.1660     1.4560    17.3660 c3         1 8Y0       0.429000
     49 O           10.0640     0.6430    17.2560 o          1 8Y0      -0.362000
     50 C15          8.8040     1.9840    18.7030 c2         1 8Y0      -0.266000
     51 N            9.4360     1.5840    19.7420 n2         1 8Y0       0.081000
     52 C16          9.0770     2.1050    21.0640 c3         1 8Y0      -0.148000
     53 C39          8.5340     0.9870    21.9140 c2         1 8Y0       0.400000
     54 O3           8.1390     1.2330    23.1730 o          1 8Y0      -0.614500
     55 O4           8.4530    -0.1310    21.4630 o          1 8Y0      -0.614500
     56 H1           3.8770     0.7790    -0.4620 hn         1 8Y0       0.096000
     57 H2           3.3550     2.6400    -2.5440 h1         1 8Y0       0.072000
     58 H3           3.3540     3.5240    -1.0120 h1         1 8Y0       0.072000
     59 H4           5.6070     2.6400    -0.5000 hc         1 8Y0       0.060500
     60 H5           5.6070     1.7550    -2.0330 hc         1 8Y0       0.060500
     61 H6           5.3960     3.8900    -3.2640 hc         1 8Y0       0.058500
     62 H7           5.3960     4.7740    -1.7320 hc         1 8Y0       0.058500
     63 H8           7.6470     3.8880    -1.2210 hc         1 8Y0       0.067500
     64 H9           7.6470     3.0040    -2.7530 hc         1 8Y0       0.067500
     65 H10          7.4350     6.0230    -2.4530 hc         1 8Y0       0.081000
     66 H11          7.4360     5.1380    -3.9850 hc         1 8Y0       0.081000
     67 H12         11.7380     6.9070    -4.3290 h1         1 8Y0       0.079500
     68 H13         11.7970     5.1950    -3.8020 h1         1 8Y0       0.079500
     69 H14         13.8140     5.6110    -2.8760 ha         1 8Y0       0.108000
     70 H15         15.1490     6.3320    -0.9560 ha         1 8Y0       0.108000
     71 H16         14.0880     7.6430     0.8470 ha         1 8Y0       0.106000
     72 H17         11.7430     8.2760     0.6640 ha         1 8Y0       0.134000
     73 H18          9.4250     6.3560    -6.1300 ha         1 8Y0       0.112000
     74 H19          8.3470     8.2880    -7.2160 ha         1 8Y0       0.105000
     75 H20          7.6170    10.2210    -5.8820 ha         1 8Y0       0.107000
     76 H21          7.9700    10.2470    -3.4380 ha         1 8Y0       0.123000
     77 H22         10.7070     8.4730     1.8000 h1         1 8Y0       0.100500
     78 H23         10.9740     6.8360     1.1830 h1         1 8Y0       0.100500
     79 H24          8.6850     6.2110     1.9880 hc         1 8Y0       0.075500
     80 H25          8.5320     7.8220     2.7020 hc         1 8Y0       0.075500
     81 H26         10.5280     7.3940     4.0970 hc         1 8Y0       0.055000
     82 H27         10.6810     5.7830     3.3840 hc         1 8Y0       0.055000
     83 H28          8.4440     5.1850     4.2530 hc         1 8Y0       0.057500
     84 H29          8.2910     6.7960     4.9670 hc         1 8Y0       0.057500
     85 H30         10.4400     4.7560     5.6490 hc         1 8Y0       0.054500
     86 H31         10.2870     6.3680     6.3620 hc         1 8Y0       0.054500
     87 H32          8.0500     5.7700     7.2320 hc         1 8Y0       0.055000
     88 H33          8.2030     4.1590     6.5190 hc         1 8Y0       0.055000
     89 H34         10.0460     5.3420     8.6280 hc         1 8Y0       0.054000
     90 H35         10.1990     3.7310     7.9140 hc         1 8Y0       0.054000
     91 H36          7.8090     4.7440     9.4970 hc         1 8Y0       0.054000
     92 H37          7.9620     3.1330     8.7840 hc         1 8Y0       0.054000
     93 H38          9.8040     4.3160    10.8930 hc         1 8Y0       0.055000
     94 H39          9.9580     2.7050    10.1790 hc         1 8Y0       0.055000
     95 H40          7.7220     2.1060    11.0480 hc         1 8Y0       0.055000
     96 H41          7.5680     3.7170    11.7620 hc         1 8Y0       0.055000
     97 H42          9.5640     3.2890    13.1580 hc         1 8Y0       0.063500
     98 H43          9.7170     1.6780    12.4440 hc         1 8Y0       0.063500
     99 H44          7.3270     2.6910    14.0270 ha         1 8Y0       0.061500
    100 H45          7.4810     1.0790    13.3140 ha         1 8Y0       0.061500
    101 H46          8.9380     2.3900    14.4790 DU         1 8Y0       0.062000
    102 H47          9.4250     2.2650    16.4650 DU         1 8Y0       0.020000
    103 H48          8.0220     2.7280    18.7980 h4         1 8Y0       0.093000
    104 H49          9.9570     2.5240    21.5370 h1         1 8Y0       0.052000
    105 H50          8.3240     2.8760    20.9560 h1         1 8Y0       0.052000
@<TRIPOS>BOND
     1     1     2 1   
     2     2     3 1   
     3     2     4 1   
     4     2     5 1   
     5     5     6 1   
     6     5     7 1   
     7     7     8 1   
     8     7    56 1   
     9     8     9 1   
    10     8    57 1   
    11     8    58 1   
    12     9    10 1   
    13     9    59 1   
    14     9    60 1   
    15    10    11 1   
    16    10    61 1   
    17    10    62 1   
    18    11    12 1   
    19    11    63 1   
    20    11    64 1   
    21    12    13 1   
    22    12    65 1   
    23    12    66 1   
    24    13    14 1   
    25    13    15 1   
    26    15    16 1   
    27    15    24 1   
    28    16    17 1   
    29    16    67 1   
    30    16    68 1   
    31    17    18 1   
    32    17    22 1   
    33    18    19 1   
    34    18    69 1   
    35    19    20 1   
    36    19    70 1   
    37    20    21 1   
    38    20    71 1   
    39    21    22 1   
    40    21    72 1   
    41    22    23 1   
    42    23    30 1   
    43    23    33 1   
    44    24    25 1   
    45    24    29 1   
    46    25    26 1   
    47    25    73 1   
    48    26    27 1   
    49    26    74 1   
    50    27    28 1   
    51    27    75 1   
    52    28    29 1   
    53    28    76 1   
    54    29    30 1   
    55    30    31 1   
    56    31    32 1   
    57    32    33 1   
    58    33    34 1   
    59    34    35 1   
    60    34    77 1   
    61    34    78 1   
    62    35    36 1   
    63    35    79 1   
    64    35    80 1   
    65    36    37 1   
    66    36    81 1   
    67    36    82 1   
    68    37    38 1   
    69    37    83 1   
    70    37    84 1   
    71    38    39 1   
    72    38    85 1   
    73    38    86 1   
    74    39    40 1   
    75    39    87 1   
    76    39    88 1   
    77    40    41 1   
    78    40    89 1   
    79    40    90 1   
    80    41    42 1   
    81    41    91 1   
    82    41    92 1   
    83    42    43 1   
    84    42    93 1   
    85    42    94 1   
    86    43    44 1   
    87    43    95 1   
    88    43    96 1   
    89    44    45 1   
    90    44    97 1   
    91    44    98 1   
    92    45    46 1   
    93    45    99 1   
    94    45   100 1   
    95    45   101 1   
    96    46    47 1   
    97    46   101 1   
    98    47    48 1   
    99    47   102 1   
   100    48    49 1   
   101    48    50 1   
   102    48   102 1   
   103    50    51 1   
   104    50   103 1   
   105    51    52 1   
   106    52    53 1   
   107    52   104 1   
   108    52   105 1   
   109    53    54 1   
   110    53    55 1   
@<TRIPOS>SUBSTRUCTURE
     1 8Y0         1 TEMP              0 ****  ****    0 ROOT
