@<TRIPOS>MOLECULE
8Y2
   58    61     1     0     0
SMALL
bcc


@<TRIPOS>ATOM
      1 C1           0.0000     0.0000     0.0000 ca         1 8Y2      -0.090000
      2 C2           1.3830     0.0000     0.0000 ca         1 8Y2      -0.105500
      3 C3          -0.6920     0.0040     1.1970 ca         1 8Y2      -0.105500
      4 C7          -0.0010     0.0050     2.3930 ca         1 8Y2      -0.076000
      5 C8          -1.1760    10.0790     2.4210 ca         1 8Y2      -0.115500
      6 C9           0.8830    11.1910     2.9260 ca         1 8Y2      -0.115500
      7 C10         -1.3340    10.8780     1.3040 ca         1 8Y2       0.006500
      8 C11          0.7230    11.9930     1.8110 ca         1 8Y2       0.006500
      9 C12          2.1600     5.0590     5.5320 cc         1 8Y2      -0.179000
     10 C13          4.1010     0.5990     7.1100 ca         1 8Y2       0.446200
     11 C14          3.1090     4.1400     3.6430 cd         1 8Y2      -0.007100
     12 C15          3.3120     2.8200     5.7370 ca         1 8Y2      -0.160300
     13 C16          2.8650     4.0010     4.9590 cc         1 8Y2      -0.035000
     14 C19         -0.3840    11.8360     0.9990 ca         1 8Y2      -0.155500
     15 C20          3.0460     1.5240     5.2770 ca         1 8Y2       0.632600
     16 C21          1.8380     6.0420     4.6840 cd         1 8Y2      -0.002500
     17 C22          0.8610     8.1250     4.0870 c          1 8Y2       0.534100
     18 C24          0.0980     9.3720     4.4560 c3         1 8Y2      -0.040100
     19 C4           4.4000     1.8440     7.6260 ca         1 8Y2      -0.269300
     20 C5           4.0040     2.9800     6.9370 ca         1 8Y2      -0.027000
     21 C6           2.0730     0.0000     1.1970 ca         1 8Y2      -0.076000
     22 C17         -0.0700    10.2380     3.2340 ca         1 8Y2      -0.024300
     23 C18          1.3820     0.0000     2.3950 ca         1 8Y2      -0.115300
     24 C23         -1.7520    15.2610    -0.9870 c3         1 8Y2       0.037900
     25 C25          2.1340    -0.0010     3.7000 c3         1 8Y2       0.270700
     26 C26         -1.5120    14.2920     0.1720 c3         1 8Y2       0.001400
     27 N27          3.4440     0.4720     5.9710 nb         1 8Y2      -0.666000
     28 N28          1.1310     7.1980     5.0260 ns         1 8Y2       0.020900
     29 O29          1.2310     7.9570     2.9430 o          1 8Y2      -0.587100
     30 O30          0.7410    13.2250    -0.7790 o          1 8Y2      -0.585800
     31 O31         -1.3840    12.0730    -1.3040 o          1 8Y2      -0.585800
     32 O32          2.3740     1.3470     4.1130 os         1 8Y2      -0.416100
     33 S33          2.4380     5.6630     3.0750 ss         1 8Y2      -0.176800
     34 H1          -0.5410    -0.0000    -0.9380 ha         1 8Y2       0.102000
     35 H2           1.9250    -0.0020    -0.9380 ha         1 8Y2       0.103500
     36 H3          -1.7750     0.0060     1.1960 ha         1 8Y2       0.103500
     37 H4          -0.5430     0.0070     3.3310 ha         1 8Y2       0.105000
     38 H5          -1.9220     9.3310     2.6610 ha         1 8Y2       0.109000
     39 H6           1.7500    11.3140     3.5620 ha         1 8Y2       0.109000
     40 H7          -2.2010    10.7540     0.6680 ha         1 8Y2       0.122000
     41 H8           1.4690    12.7410     1.5710 ha         1 8Y2       0.122000
     42 H9           1.8940     5.0830     6.5820 ha         1 8Y2       0.122000
     43 H10          4.4100    -0.2890     7.6480 h4         1 8Y2      -0.022900
     44 H11          3.6410     3.4250     3.0280 h4         1 8Y2       0.159000
     45 H12         -0.8760     9.0980     4.8420 hc         1 8Y2       0.033200
     46 H13          0.6460     9.9190     5.2140 hc         1 8Y2       0.033200
     47 H14          4.9400     1.9330     8.5620 ha         1 8Y2       0.116000
     48 H15          4.2260     3.9690     7.3210 ha         1 8Y2       0.113000
     49 H16          3.1570    -0.0020     1.1980 ha         1 8Y2       0.105000
     50 H17         -2.3070    16.1210    -0.6300 hc         1 8Y2       0.012700
     51 H18         -0.8000    15.5870    -1.3880 hc         1 8Y2       0.012700
     52 H19         -2.3200    14.7620    -1.7630 hc         1 8Y2       0.012700
     53 H20          1.5470    -0.5100     4.4550 h1         1 8Y2       0.012700
     54 H21          3.0800    -0.5130     3.5720 h1         1 8Y2       0.012700
     55 H22         -0.9450    14.7900     0.9490 h1         1 8Y2       0.061700
     56 H23         -2.4650    13.9660     0.5730 h1         1 8Y2       0.061700
     57 H24          0.8240     7.3370     5.9680 hn         1 8Y2       0.165500
     58 S34         -0.5840    12.8530    -0.4260 sy         1 8Y2       0.874300
@<TRIPOS>BOND
     1     1     2 ar  
     2     1     3 ar  
     3     1    34 1   
     4     2    21 ar  
     5     2    35 1   
     6     3     4 ar  
     7     3    36 1   
     8     4    23 ar  
     9     4    37 1   
    10     5     7 ar  
    11     5    22 ar  
    12     5    38 1   
    13     6     8 ar  
    14     6    22 ar  
    15     6    39 1   
    16     7    14 ar  
    17     7    40 1   
    18     8    14 ar  
    19     8    41 1   
    20     9    13 1   
    21     9    16 2   
    22     9    42 1   
    23    10    19 ar  
    24    10    27 ar  
    25    10    43 1   
    26    11    13 2   
    27    11    33 1   
    28    11    44 1   
    29    12    13 1   
    30    12    15 ar  
    31    12    20 ar  
    32    14    58 1   
    33    15    27 ar  
    34    15    32 1   
    35    16    28 1   
    36    16    33 1   
    37    17    18 1   
    38    17    28 1   
    39    17    29 2   
    40    18    22 1   
    41    18    45 1   
    42    18    46 1   
    43    19    20 ar  
    44    19    47 1   
    45    20    48 1   
    46    21    23 ar  
    47    21    49 1   
    48    23    25 1   
    49    24    26 1   
    50    24    50 1   
    51    24    51 1   
    52    24    52 1   
    53    25    32 1   
    54    25    53 1   
    55    25    54 1   
    56    26    55 1   
    57    26    56 1   
    58    26    58 1   
    59    28    57 1   
    60    30    58 2   
    61    31    58 2   
@<TRIPOS>SUBSTRUCTURE
     1 8Y2         1 TEMP              0 ****  ****    0 ROOT
