@<TRIPOS>MOLECULE
8Y4
   38    40     1     0     0
SMALL
bcc


@<TRIPOS>ATOM
      1 C1           0.0000     0.0000     0.0000 ca         1 8Y4      -0.098000
      2 C2           1.3830     0.0000     0.0000 ca         1 8Y4      -0.079500
      3 C3          -0.6950     0.0010     1.1960 ca         1 8Y4      -0.079500
      4 C4           2.0740     0.0000     1.1950 ca         1 8Y4      -0.109000
      5 C5          -0.0090    -0.0040     2.3940 ca         1 8Y4      -0.109000
      6 C6           1.3800     0.0000     2.3980 ca         1 8Y4      -0.114400
      7 C7           6.6270     0.4910     8.4040 cc         1 8Y4       0.298800
      8 C8           7.7310     1.2860     8.0770 cd         1 8Y4      -0.247200
      9 C9           6.3190     1.2190     6.3770 cd         1 8Y4       0.386800
     10 C10          6.5800    -0.1080     9.6820 c          1 8Y4       0.522000
     11 C11          8.6600     0.8890    10.1540 cc         1 8Y4      -0.042200
     12 C12          3.2600     0.6410     3.7080 c          1 8Y4       0.567100
     13 C14          4.0680     0.5420     4.9770 c3         1 8Y4       0.012700
     14 N15          5.7960     0.4890     7.3290 nc         1 8Y4      -0.542000
     15 N16          8.7130     1.4560     8.9700 nd         1 8Y4      -0.333100
     16 N17          7.5150     1.7370     6.7990 na         1 8Y4       0.377100
     17 N18          7.6090     0.1080    10.5320 ns         1 8Y4       0.000600
     18 N19          9.6920     1.0910    11.0380 nz         1 8Y4       0.228400
     19 N20          2.0780     0.0000     3.6110 ns         1 8Y4      -0.004100
     20 O21          5.6330    -0.8030    10.0110 o          1 8Y4      -0.575500
     21 O22          3.6730     1.2960     2.7750 o          1 8Y4      -0.613100
     22 S23          5.5900     1.5030     4.7970 ss         1 8Y4      -0.258400
     23 H1          -0.5400     0.0020    -0.9390 ha         1 8Y4       0.109000
     24 H2           1.9240    -0.0010    -0.9380 ha         1 8Y4       0.108500
     25 H3          -1.7780    -0.0000     1.1920 ha         1 8Y4       0.108500
     26 H4           3.1580     0.0020     1.1940 ha         1 8Y4       0.119500
     27 H5          -0.5530    -0.0030     3.3310 ha         1 8Y4       0.119500
     28 H6           7.8350     3.4300     5.6120 h1         1 8Y4       0.047367
     29 H7           9.1830     2.9940     6.6720 h1         1 8Y4       0.047367
     30 H8           8.8540     2.0390     5.2200 h1         1 8Y4       0.047367
     31 H9           4.3160    -0.4960     5.1670 h1         1 8Y4       0.067700
     32 H10          3.4900     0.9330     5.8050 h1         1 8Y4       0.067700
     33 H11          7.6000    -0.3090    11.4410 hn         1 8Y4       0.188500
     34 H12         10.4030     1.6420    10.6000 hn         1 8Y4       0.213800
     35 H13          9.3490     1.5720    11.8470 hn         1 8Y4       0.213800
     36 H14          1.7180    -0.5070     4.3950 hn         1 8Y4       0.167500
     37 C13          8.4050     2.6070     6.0250 c3         1 8Y4      -0.031400
     38 H193        10.0750     0.2080    11.3120 hn         1 8Y4       0.213800
@<TRIPOS>BOND
     1     1     2 ar  
     2     1     3 ar  
     3     1    23 1   
     4     2     4 ar  
     5     2    24 1   
     6     3     5 ar  
     7     3    25 1   
     8     4     6 ar  
     9     4    26 1   
    10     5     6 ar  
    11     5    27 1   
    12     6    19 1   
    13     7     8 2   
    14     7    10 1   
    15     7    14 1   
    16     8    15 1   
    17     8    16 1   
    18     9    14 2   
    19     9    16 1   
    20     9    22 1   
    21    10    17 1   
    22    10    20 2   
    23    11    15 2   
    24    11    17 1   
    25    11    18 1   
    26    12    13 1   
    27    12    19 1   
    28    12    21 2   
    29    13    22 1   
    30    13    31 1   
    31    13    32 1   
    32    16    37 1   
    33    17    33 1   
    34    18    34 1   
    35    18    35 1   
    36    18    38 1   
    37    19    36 1   
    38    28    37 1   
    39    29    37 1   
    40    30    37 1   
@<TRIPOS>SUBSTRUCTURE
     1 8Y4         1 TEMP              0 ****  ****    0 ROOT
