@<TRIPOS>MOLECULE
molecule
   59    62     1     0     0
SMALL
bcc


@<TRIPOS>ATOM
      1 C1           3.5060    -0.0000     1.2190 cg         1 8Y5       0.238800
      2 C2           0.0000     0.0000     0.0000 ca         1 8Y5      -0.155000
      3 C3          -3.0860     1.8420     7.5990 ca         1 8Y5      -0.273300
      4 C7          -2.0210    10.2260    -0.4070 ca         1 8Y5      -0.123000
      5 C8          -1.0050    11.3230     1.4610 ca         1 8Y5      -0.123000
      6 C9          -1.1330    10.8910    -0.9620 ca         1 8Y5      -0.006000
      7 C10          0.0070    12.1020     0.9870 ca         1 8Y5      -0.006000
      8 C11          1.3670     0.0000     2.4150 ca         1 8Y5      -0.076000
      9 C12         -2.3800     5.0500     4.6110 cc         1 8Y5      -0.178000
     10 C13         -2.7790     0.5960     7.0870 ca         1 8Y5       0.445200
     11 C14         -0.2660     4.1400     4.5080 cd         1 8Y5      -0.072100
     12 C15          2.0750     0.0000     1.2120 ca         1 8Y5      -0.006000
     13 C16         -1.9810     2.8160     5.7190 ca         1 8Y5      -0.157300
     14 C19         -0.0130    -0.0050     2.4010 ca         1 8Y5      -0.056300
     15 C20         -0.0880    11.7940    -0.7130 ca         1 8Y5      -0.309500
     16 C21         -1.7080     1.5200     5.2650 ca         1 8Y5       0.652600
     17 C22         -1.8060     6.0340     3.9090 cd         1 8Y5       0.081500
     18 C24          0.3970    15.0630    -3.2890 c3         1 8Y5      -0.135100
     19 C27         -0.2060    14.5890    -2.2530 c3         1 8Y5       0.093400
     20 N29         -2.1110     0.4690     5.9560 nb         1 8Y5      -0.798000
     21 C4           1.3800     0.0000     0.0000 ca         1 8Y5      -0.095000
     22 C5          -2.6860     2.9770     6.9120 ca         1 8Y5      -0.055000
     23 C6          -0.6950     0.0010     1.1970 ca         1 8Y5      -0.085000
     24 C17         -1.5290     3.9970     4.9440 cc         1 8Y5      -0.088000
     25 C18         -1.8040    10.5880     0.9360 ca         1 8Y5       0.064700
     26 C23         -1.9280     8.0260     2.6690 c          1 8Y5       0.608100
     27 C25         -2.5090     9.3640     1.8050 c3         1 8Y5      -0.083100
     28 C26         -0.7780    -0.0040     3.6990 c3         1 8Y5       0.143700
     29 N28          4.6430     0.0010     1.2440 n1         1 8Y5      -0.356800
     30 O31         -0.8130     8.3100     3.0240 o          1 8Y5      -0.684100
     31 O32          2.1280    13.5020    -1.1970 o          1 8Y5      -0.509800
     32 O33          1.2580    12.1030    -2.7900 o          1 8Y5      -0.509800
     33 O34         -1.0250     1.3420     4.1070 os         1 8Y5      -0.440100
     34 S35         -0.1120     5.6550     3.6270 ss         1 8Y5       0.000200
     35 H1          -0.4030     0.1060    -1.0000 ha         1 8Y5       0.142000
     36 H2          -3.2360     2.0020     8.6600 ha         1 8Y5       0.147000
     37 H3          -2.7820     9.5780    -0.8240 ha         1 8Y5       0.162000
     38 H4          -0.9580    11.3290     2.5430 ha         1 8Y5       0.162000
     39 H5          -1.1540    10.9320    -2.0440 ha         1 8Y5       0.150000
     40 H6           0.7990    12.8360     1.0690 ha         1 8Y5       0.150000
     41 H7           1.5710    -0.6120     3.2850 ha         1 8Y5       0.155000
     42 H8          -3.3530     4.7450     4.9770 ha         1 8Y5       0.161000
     43 H9          -2.5810    -0.4180     7.4140 h4         1 8Y5       0.050100
     44 H10          0.4410     3.4270     4.9140 h4         1 8Y5       0.185000
     45 H11          1.2840    15.5750    -2.9360 hc         1 8Y5       0.070367
     46 H12          0.7160    14.4130    -4.0950 hc         1 8Y5       0.070367
     47 H13          0.0170    15.9870    -3.7080 hc         1 8Y5       0.070367
     48 H14         -0.4010    15.1360    -1.3390 h1         1 8Y5       0.068700
     49 H15         -1.0970    14.1860    -2.7200 h1         1 8Y5       0.068700
     50 H16          1.9180     0.0230    -0.9400 ha         1 8Y5       0.144000
     51 H17         -3.1190     3.9310     7.1860 ha         1 8Y5       0.151000
     52 H18         -1.7240    -0.0560     0.8640 ha         1 8Y5       0.147000
     53 H19         -3.1640     8.8550     1.1080 hc         1 8Y5       0.027700
     54 H20         -3.2270     9.5120     2.6020 hc         1 8Y5       0.027700
     55 H21         -1.7200    -0.2870     4.1520 h1         1 8Y5       0.066700
     56 H22         -0.1640    -0.6180     4.3470 h1         1 8Y5       0.066700
     57 H23         -3.3520     6.9230     3.0610 hn         1 8Y5       0.288500
     58 N30         -2.3670     7.0930     3.1090 ns         1 8Y5      -0.319100
     59 S36          0.6850    12.9170    -1.7170 sy         1 8Y5       0.641300
@<TRIPOS>BOND
     1    29     1 3   
     2     3    10 ar  
     3     3    22 ar  
     4    10    20 ar  
     5     1    12 1   
     6    31    59 2   
     7    22    13 ar  
     8    20    16 ar  
     9    18    19 1   
    10    12     8 ar  
    11    12    21 ar  
    12     8    14 ar  
    13    19    59 1   
    14    16    13 ar  
    15    16    33 1   
    16    59    32 2   
    17    59    15 1   
    18    13    24 1   
    19    21     2 ar  
    20     6    15 ar  
    21     6     4 ar  
    22    14    28 1   
    23    14    23 ar  
    24    33    28 1   
    25    24     9 1   
    26    24    11 2   
    27    15     7 ar  
    28     2    23 ar  
    29     9    17 2   
    30     4    25 ar  
    31    11    34 1   
    32    17    34 1   
    33    17    58 1   
    34     7     5 ar  
    35    25     5 ar  
    36    25    27 1   
    37    58    26 1   
    38    26    27 1   
    39    26    30 2   
    40     2    35 1   
    41     3    36 1   
    42     4    37 1   
    43     5    38 1   
    44     6    39 1   
    45     7    40 1   
    46     8    41 1   
    47     9    42 1   
    48    10    43 1   
    49    11    44 1   
    50    18    45 1   
    51    18    46 1   
    52    18    47 1   
    53    19    48 1   
    54    19    49 1   
    55    21    50 1   
    56    22    51 1   
    57    23    52 1   
    58    27    53 1   
    59    27    54 1   
    60    28    55 1   
    61    28    56 1   
    62    58    57 1   
@<TRIPOS>SUBSTRUCTURE
     1 8Y5         1 TEMP              0 ****  ****    0 ROOT
