@<TRIPOS>MOLECULE
8Y5
   59    62     1     0     0
SMALL
bcc


@<TRIPOS>ATOM
      1 C1           3.5060    -0.0000     1.2190 cg         1 8Y5       0.228800
      2 C2           0.0000     0.0000     0.0000 ca         1 8Y5      -0.126000
      3 C3          -3.0860     1.8420     7.5990 ca         1 8Y5      -0.240300
      4 C7          -2.0210    10.2260    -0.4070 ca         1 8Y5      -0.106000
      5 C8          -1.0050    11.3230     1.4610 ca         1 8Y5      -0.106000
      6 C9          -1.1330    10.8910    -0.9620 ca         1 8Y5       0.035000
      7 C10          0.0070    12.1020     0.9870 ca         1 8Y5       0.035000
      8 C11          1.3670     0.0000     2.4150 ca         1 8Y5      -0.070000
      9 C12         -2.3800     5.0500     4.6110 cc         1 8Y5      -0.129000
     10 C13         -2.7790     0.5960     7.0870 ca         1 8Y5       0.436200
     11 C14         -0.2660     4.1400     4.5080 cd         1 8Y5       0.027900
     12 C15          2.0750     0.0000     1.2120 ca         1 8Y5       0.050000
     13 C16         -1.9810     2.8160     5.7190 ca         1 8Y5      -0.164300
     14 C19         -0.0130    -0.0050     2.4010 ca         1 8Y5      -0.056300
     15 C20         -0.0880    11.7940    -0.7130 ca         1 8Y5      -0.168500
     16 C21         -1.7080     1.5200     5.2650 ca         1 8Y5       0.631600
     17 C22         -1.8060     6.0340     3.9090 cd         1 8Y5      -0.029500
     18 C24          0.3970    15.0630    -3.2890 c3         1 8Y5      -0.048100
     19 C27         -0.2060    14.5890    -2.2530 c3         1 8Y5       0.282400
     20 N29         -2.1110     0.4690     5.9560 nb         1 8Y5      -0.707000
     21 C4           1.3800     0.0000     0.0000 ca         1 8Y5      -0.081000
     22 C5          -2.6860     2.9770     6.9120 ca         1 8Y5      -0.027000
     23 C6          -0.6950     0.0010     1.1970 ca         1 8Y5      -0.063000
     24 C17         -1.5290     3.9970     4.9440 cc         1 8Y5      -0.094000
     25 C18         -1.8040    10.5880     0.9360 ca         1 8Y5       0.060700
     26 C23         -1.9280     8.0260     2.6690 c          1 8Y5       0.429100
     27 C25         -2.5090     9.3640     1.8050 c3         1 8Y5       0.020900
     28 C26         -0.7780    -0.0040     3.6990 c3         1 8Y5       0.201700
     29 N28          4.6430     0.0010     1.2440 n1         1 8Y5      -0.374800
     30 O31         -0.8130     8.3100     3.0240 o          1 8Y5      -0.742100
     31 O32          2.1280    13.5020    -1.1970 o          1 8Y5      -0.498300
     32 O33          1.2580    12.1030    -2.7900 o          1 8Y5      -0.498300
     33 O34         -1.0250     1.3420     4.1070 os         1 8Y5      -0.422100
     34 S35         -0.1120     5.6550     3.6270 ss         1 8Y5      -0.161800
     35 H1          -0.4030     0.1060    -1.0000 ha         1 8Y5       0.113000
     36 H2          -3.2360     2.0020     8.6600 ha         1 8Y5       0.121000
     37 H3          -2.7820     9.5780    -0.8240 ha         1 8Y5       0.134000
     38 H4          -0.9580    11.3290     2.5430 ha         1 8Y5       0.134000
     39 H5          -1.1540    10.9320    -2.0440 ha         1 8Y5       0.115000
     40 H6           0.7990    12.8360     1.0690 ha         1 8Y5       0.115000
     41 H7           1.5710    -0.6120     3.2850 ha         1 8Y5       0.129000
     42 H8          -3.3530     4.7450     4.9770 ha         1 8Y5       0.139000
     43 H9          -2.5810    -0.4180     7.4140 h4         1 8Y5       0.008100
     44 H10          0.4410     3.4270     4.9140 h4         1 8Y5       0.160000
     45 H11          1.2840    15.5750    -2.9360 hc         1 8Y5       0.034367
     46 H12          0.7160    14.4130    -4.0950 hc         1 8Y5       0.034367
     47 H13          0.0170    15.9870    -3.7080 hc         1 8Y5       0.034367
     48 H14         -0.4010    15.1360    -1.3390 h1         1 8Y5       0.031200
     49 H15         -1.0970    14.1860    -2.7200 h1         1 8Y5       0.031200
     50 H16          1.9180     0.0230    -0.9400 ha         1 8Y5       0.115000
     51 H17         -3.1190     3.9310     7.1860 ha         1 8Y5       0.118000
     52 H18         -1.7240    -0.0560     0.8640 ha         1 8Y5       0.117000
     53 H19         -3.1640     8.8550     1.1080 hc         1 8Y5      -0.016300
     54 H20         -3.2270     9.5120     2.6020 hc         1 8Y5      -0.016300
     55 H21         -1.7200    -0.2870     4.1520 h1         1 8Y5       0.030200
     56 H22         -0.1640    -0.6180     4.3470 h1         1 8Y5       0.030200
     57 H23         -3.3520     6.9230     3.0610 hn         1 8Y5       0.103500
     58 N30         -2.3670     7.0930     3.1090 ns         1 8Y5       0.269900
     59 S36          0.6850    12.9170    -1.7170 sy         1 8Y5       0.390300
@<TRIPOS>BOND
     1     1    12 1   
     2     1    29 3   
     3     2    21 ar  
     4     2    23 ar  
     5     2    35 1   
     6     3    10 ar  
     7     3    22 ar  
     8     3    36 1   
     9     4     6 ar  
    10     4    25 ar  
    11     4    37 1   
    12     5     7 ar  
    13     5    25 ar  
    14     5    38 1   
    15     6    15 ar  
    16     6    39 1   
    17     7    15 ar  
    18     7    40 1   
    19     8    12 ar  
    20     8    14 ar  
    21     8    41 1   
    22     9    17 2   
    23     9    24 1   
    24     9    42 1   
    25    10    20 ar  
    26    10    43 1   
    27    11    24 2   
    28    11    34 1   
    29    11    44 1   
    30    12    21 ar  
    31    13    16 ar  
    32    13    22 ar  
    33    13    24 1   
    34    14    23 ar  
    35    14    28 1   
    36    15    59 1   
    37    16    20 ar  
    38    16    33 1   
    39    17    34 1   
    40    17    58 1   
    41    18    19 1   
    42    18    45 1   
    43    18    46 1   
    44    18    47 1   
    45    19    48 1   
    46    19    49 1   
    47    19    59 1   
    48    21    50 1   
    49    22    51 1   
    50    23    52 1   
    51    25    27 1   
    52    26    27 1   
    53    26    30 2   
    54    26    58 1   
    55    27    53 1   
    56    27    54 1   
    57    28    33 1   
    58    28    55 1   
    59    28    56 1   
    60    31    59 2   
    61    32    59 2   
    62    57    58 1   
@<TRIPOS>SUBSTRUCTURE
     1 8Y5         1 TEMP              0 ****  ****    0 ROOT
