@<TRIPOS>MOLECULE
8Y6
   49    54     1     0     0
SMALL
bcc


@<TRIPOS>ATOM
      1 C1         -0.1550    0.1740   -0.1120 ca        1 8Y6     -0.153300
      2 C2          1.1110   -0.3780    0.0840 ca        1 8Y6      0.000000
      3 C3          1.7730   -0.2100    1.3050 ca        1 8Y6     -0.202600
      4 C4          1.1730    0.5330    2.3630 ca        1 8Y6      0.188400
      5 C5         -0.0990    1.1000    2.1600 ca        1 8Y6     -0.179000
      6 C6         -0.7510    0.9150    0.9320 ca        1 8Y6      0.161900
      7 C7         -0.7960   -4.6470   -3.3130 cc        1 8Y6     -0.091200
      8 C8         -2.3100   -3.3760   -1.6590 ca        1 8Y6     -0.056800
      9 C9         -2.3120   -2.0210   -1.1400 ca        1 8Y6     -0.036200
     10 N1         -1.2530   -1.3360   -1.7460 na        1 8Y6     -0.049400
     11 C10        -0.5800   -2.2110   -2.6180 cd        1 8Y6     -0.050300
     12 C11        -1.1960   -3.4760   -2.5740 cc        1 8Y6     -0.095200
     13 C12        -4.2820   -2.4110    0.2040 ca        1 8Y6      0.147900
     14 C13        -3.2710   -1.5480   -0.2230 ca        1 8Y6     -0.189000
     15 C14         0.5860   -1.7180   -3.4770 c         1 8Y6      0.930800
     16 C15        -0.8460    0.0050   -1.4390 c3        1 8Y6      0.085600
     17 O1          0.5210   -1.9250   -4.7150 o         1 8Y6     -0.806300
     18 C16        -0.5660   -5.9030   -2.5760 c         1 8Y6      0.693700
     19 N2         -0.2070   -7.0310   -3.3480 n         1 8Y6     -0.453100
     20 C17        -0.0240   -6.9530   -4.7090 cc        1 8Y6     -0.028400
     21 C18        -0.2110   -5.7780   -5.3860 cd        1 8Y6     -0.227000
     22 C19        -0.5980   -4.6060   -4.6670 cd        1 8Y6     -0.039000
     23 O2         -0.6400   -6.0840   -1.3450 o         1 8Y6     -0.650500
     24 O3          1.5130   -1.0930   -2.8920 o         1 8Y6     -0.806300
     25 F1         -1.9760    1.4760    0.7650 f         1 8Y6     -0.144900
     26 C20         3.1050   -0.8070    1.5150 c         1 8Y6      0.708100
     27 O4          3.7520   -1.4740    0.6940 o         1 8Y6     -0.591500
     28 N3          3.6840   -0.5830    2.7860 n         1 8Y6     -0.512400
     29 N4          1.8240    0.7100    3.5980 nc        1 8Y6     -0.628100
     30 C21         3.0040    0.1570    3.7410 cd        1 8Y6      0.485800
     31 F2         -5.2150   -1.9750    1.0870 f         1 8Y6     -0.156900
     32 C22        -4.3340   -3.7330   -0.2880 ca        1 8Y6     -0.181800
     33 C23        -3.3460   -4.1860   -1.2110 ca        1 8Y6      0.138100
     34 O5         -3.6090   -5.5070   -1.5740 os        1 8Y6     -0.180200
     35 C25        -5.2300   -4.8530   -0.0810 cc        1 8Y6     -0.162200
     36 C24        -4.7610   -5.8800   -0.8620 cd        1 8Y6     -0.052900
     37 H2          1.5940   -0.9410   -0.7510 ha        1 8Y6      0.237000
     38 H151       -1.7630    0.6640   -1.4650 h1        1 8Y6      0.089200
     39 H152       -0.1220    0.3360   -2.2480 h1        1 8Y6      0.089200
     40 H5         -0.5890    1.6800    2.9550 ha        1 8Y6      0.156000
     41 H19        -0.6970   -3.6470   -5.2120 ha        1 8Y6      0.194000
     42 H13        -3.2250   -0.5170    0.1530 ha        1 8Y6      0.146000
     43 HA         -0.0250   -7.8840   -2.8730 hn        1 8Y6      0.313500
     44 H17         0.2790   -7.8870   -5.2130 h4        1 8Y6      0.127000
     45 H18        -0.0540   -5.7210   -6.4700 ha        1 8Y6      0.138000
     46 HB          4.5740   -0.9750    2.9870 hn        1 8Y6      0.329500
     47 H21         3.5200    0.2900    4.7160 h5        1 8Y6      0.037800
     48 H25        -6.0960   -4.8480    0.5740 ha        1 8Y6      0.152000
     49 H24        -5.0710   -6.9030   -1.0480 h4        1 8Y6      0.175000
@<TRIPOS>BOND
     1    1    2 ar
     2    1    6 ar
     3    1   16 1
     4    2    3 ar
     5    2   37 1
     6    3    4 ar
     7    3   26 1
     8    4    5 ar
     9    4   29 1
    10    5    6 ar
    11    5   40 1
    12    6   25 1
    13    7   12 1
    14    7   18 1
    15    7   22 2
    16    8    9 ar
    17    8   12 1
    18    8   33 ar
    19    9   10 1
    20    9   14 ar
    21   10   11 1
    22   10   16 1
    23   11   12 2
    24   11   15 1
    25   13   14 ar
    26   13   31 1
    27   13   32 ar
    28   14   42 1
    29   15   17 1
    30   15   24 1
    31   16   38 1
    32   16   39 1
    33   18   19 1
    34   18   23 2
    35   19   20 1
    36   19   43 1
    37   20   21 2
    38   20   44 1
    39   21   22 1
    40   21   45 1
    41   22   41 1
    42   26   27 2
    43   26   28 1
    44   28   30 1
    45   28   46 1
    46   29   30 2
    47   30   47 1
    48   32   33 ar
    49   32   35 1
    50   33   34 1
    51   34   36 1
    52   35   36 2
    53   35   48 1
    54   36   49 1
@<TRIPOS>SUBSTRUCTURE
     1 8Y6         1 TEMP              0 ****  ****    0 ROOT
