@<TRIPOS>MOLECULE
8Y7
   26    27     1     0     0
SMALL
bcc


@<TRIPOS>ATOM
      1 C1           0.0000     0.0000     0.0000 cc         1 8Y7       0.311800
      2 C2           1.3980     0.0000     0.0000 cd         1 8Y7      -0.271200
      3 C3           0.6450    -0.0070    -2.0780 cd         1 8Y7       0.406800
      4 C4          -0.6770     0.0060     1.2400 c          1 8Y7       0.522000
      5 C5           1.4200    -0.0000     2.3100 cc         1 8Y7      -0.118200
      6 C6          -1.4740    -0.0020    -5.5890 c          1 8Y7       0.988600
      7 C8          -1.1890    -0.0010    -4.1100 c3         1 8Y7       0.010700
      8 N9          -0.4060     0.0000    -1.2970 nc         1 8Y7      -0.528000
      9 N10          2.0610     0.0000     1.1630 nd         1 8Y7      -0.320100
     10 N11          1.7840    -0.0010    -1.3170 na         1 8Y7       0.335100
     11 N12          0.0580     0.0050     2.3740 ns         1 8Y7      -0.010400
     12 N13          2.1420    -0.0010     3.4780 nz         1 8Y7       0.252400
     13 O14         -2.7430     0.0040    -6.0280 o          1 8Y7      -0.846300
     14 O15         -1.8950     0.0140     1.2860 o          1 8Y7      -0.588500
     15 O16         -0.5610    -0.0090    -6.3800 o          1 8Y7      -0.846300
     16 S17          0.6000    -0.0110    -3.8390 ss         1 8Y7      -0.271400
     17 H1           3.3840    -0.9670    -2.2570 h1         1 8Y7       0.039367
     18 H2           3.2710     0.7710    -2.5680 h1         1 8Y7       0.039367
     19 H3           3.8430     0.1890    -0.9990 h1         1 8Y7       0.039367
     20 H4          -1.6270    -0.8830    -3.6570 h1         1 8Y7       0.051200
     21 H5          -1.6170     0.8860    -3.6600 h1         1 8Y7       0.051200
     22 H6          -0.3990     0.0040     3.2640 hn         1 8Y7       0.175500
     23 H7           1.8930    -0.8030     4.0240 hn         1 8Y7       0.199133
     24 H8           1.9410     0.8310     3.9960 hn         1 8Y7       0.199133
     25 C7           3.1600    -0.0020    -1.8180 c3         1 8Y7      -0.019400
     26 H133         3.1200    -0.0330     3.2660 hn         1 8Y7       0.199133
@<TRIPOS>BOND
     1     1     2 2   
     2     1     4 1   
     3     1     8 1   
     4     2     9 1   
     5     2    10 1   
     6     3     8 2   
     7     3    10 1   
     8     3    16 1   
     9     4    11 1   
    10     4    14 2   
    11     5     9 2   
    12     5    11 1   
    13     5    12 1   
    14     6     7 1   
    15     6    13 1   
    16     6    15 1   
    17     7    16 1   
    18     7    20 1   
    19     7    21 1   
    20    10    25 1   
    21    11    22 1   
    22    12    23 1   
    23    12    24 1   
    24    12    26 1   
    25    17    25 1   
    26    18    25 1   
    27    19    25 1   
@<TRIPOS>SUBSTRUCTURE
     1 8Y7         1 TEMP              0 ****  ****    0 ROOT
