@<TRIPOS>MOLECULE
molecule
   26    27     1     0     0
SMALL
bcc


@<TRIPOS>ATOM
      1 C1           0.0000     0.0000     0.0000 cc         1 8Y7       0.344800
      2 C2           1.3980     0.0000     0.0000 cc         1 8Y7      -0.019200
      3 C3           0.6450    -0.0070    -2.0780 cd         1 8Y7       0.587800
      4 C4          -0.6770     0.0060     1.2400 c          1 8Y7       0.622000
      5 C5           1.4200    -0.0000     2.3100 cd         1 8Y7       0.347800
      6 C6          -1.4740    -0.0020    -5.5890 c          1 8Y7       0.901600
      7 C8          -1.1890    -0.0010    -4.1100 c3         1 8Y7      -0.110300
      8 N9          -0.4060     0.0000    -1.2970 nc         1 8Y7      -0.634000
      9 N10          2.0610     0.0000     1.1630 nc         1 8Y7      -0.532100
     10 N11          1.7840    -0.0010    -1.3170 na         1 8Y7      -0.169900
     11 N12          0.0580     0.0050     2.3740 ns         1 8Y7      -0.469400
     12 N13          2.1420    -0.0010     3.4780 nz         1 8Y7      -0.704600
     13 O14         -2.7430     0.0040    -6.0280 o          1 8Y7      -0.801800
     14 O15         -1.8950     0.0140     1.2860 o          1 8Y7      -0.550500
     15 O16         -0.5610    -0.0090    -6.3800 o          1 8Y7      -0.801800
     16 S17          0.6000    -0.0110    -3.8390 ss         1 8Y7      -0.131400
     17 H1           3.3840    -0.9670    -2.2570 h1         1 8Y7       0.068700
     18 H2           3.2710     0.7710    -2.5680 h1         1 8Y7       0.068700
     19 H3           3.8430     0.1890    -0.9990 h1         1 8Y7       0.068700
     20 H4          -1.6270    -0.8830    -3.6570 h1         1 8Y7       0.081700
     21 H5          -1.6170     0.8860    -3.6600 h1         1 8Y7       0.081700
     22 H6          -0.3990     0.0040     3.2640 hn         1 8Y7       0.334500
     23 H7           1.8930    -0.8030     4.0240 hn         1 8Y7       0.461467
     24 H8           1.9410     0.8310     3.9960 hn         1 8Y7       0.461467
     25 C7           3.1600    -0.0020    -1.8180 c3         1 8Y7       0.032600
     26 H133         3.1200    -0.0330     3.2660 hn         1 8Y7       0.461467
@<TRIPOS>BOND
     1    25    10 1
     2     9     5 2
     3     9     2 1
     4    12     5 1
     5    10     2 1
     6    10     3 1
     7     5    11 1
     8     2     1 2
     9    16     3 1
    10    16     7 1
    11     3     8 2
    12    11     4 1
    13     1     8 1
    14     1     4 1
    15     4    14 2
    16     7     6 1
    17    15     6 1
    18     6    13 1
    19    25    17 1
    20    25    18 1
    21    25    19 1
    22     7    20 1
    23     7    21 1
    24    11    22 1
    25    12    23 1
    26    12    24 1
    27    26    12 1
@<TRIPOS>SUBSTRUCTURE
     1 8Y7         1 TEMP              0 ****  ****    0 ROOT
