@<TRIPOS>MOLECULE
8Y8
   50    52     1     0     0
SMALL
bcc


@<TRIPOS>ATOM
      1 C1          -2.1340     0.0000     1.2070 cg         1 8Y8       0.238800
      2 C2           0.0000     0.0000     0.0000 ca         1 8Y8       0.004000
      3 C3           5.5840     2.2370    10.2370 ca         1 8Y8      -0.132000
      4 C4           3.9940     0.7060    11.1650 ca         1 8Y8      -0.132000
      5 C5           1.3790     0.0000     0.0000 ca         1 8Y8      -0.255000
      6 C6           6.5270     1.8160    11.1570 ca         1 8Y8       0.036000
      7 C7           4.9340     0.2890    12.0890 ca         1 8Y8       0.036000
      8 C8          -0.0050    -0.0000     2.4190 ca         1 8Y8      -0.035000
      9 C9           1.8600     0.8960     4.7280 cc         1 8Y8      -0.172000
     10 C10          3.1250    -0.8680     3.9580 cd         1 8Y8      -0.008100
     11 C11         -0.7020    -0.0000     1.2090 ca         1 8Y8      -0.004000
     12 C12          1.3840    -0.0000     2.4150 ca         1 8Y8      -0.057000
     13 C13          2.1310    -0.0010     3.6970 cc         1 8Y8      -0.049000
     14 C14          4.3170     1.6850    10.2430 ca         1 8Y8      -0.001300
     15 C15          2.0780     0.0000     1.1980 ca         1 8Y8       0.135100
     16 C16          6.2010     0.8410    12.0820 ca         1 8Y8      -0.272500
     17 C17          2.6300     0.7530     5.8130 cd         1 8Y8       0.003500
     18 C18          3.3770     1.3030     8.0010 c          1 8Y8       0.516100
     19 C19          9.0120     1.0520    14.8060 c3         1 8Y8       0.007900
     20 C20          4.0770    -0.0010    -0.0850 c3         1 8Y8       0.216700
     21 C21          3.2880     2.1490     9.2460 c3         1 8Y8      -0.056100
     22 C22          7.8140     1.3870    14.0140 c3         1 8Y8      -0.016600
     23 N23         -3.2690     0.0200     1.2010 n1         1 8Y8      -0.386800
     24 N24          2.5480     1.5380     6.9660 ns         1 8Y8       0.024900
     25 O25          4.1960     0.4110     7.9310 o          1 8Y8      -0.597100
     26 O26          7.4540    -1.0340    13.2490 o          1 8Y8      -0.607800
     27 O27          8.6000     0.1000    11.8580 o          1 8Y8      -0.607800
     28 O28          3.4340    -0.0010     1.1910 os         1 8Y8      -0.325900
     29 S29          3.7620    -0.5700     5.5700 ss         1 8Y8      -0.160800
     30 S30          7.4570     0.1920    12.6000 sy         1 8Y8       1.062300
     31 H1          -0.4410    -0.0510    -0.9880 ha         1 8Y8       0.113000
     32 H2           5.9260     2.9860     9.5330 ha         1 8Y8       0.123500
     33 H3           3.0890     0.2870    10.7420 ha         1 8Y8       0.123500
     34 H4           2.2110     0.3950    -0.5700 ha         1 8Y8       0.157000
     35 H5           7.5600     2.1150    11.0300 ha         1 8Y8       0.133000
     36 H6           4.4990    -0.5190    12.6640 ha         1 8Y8       0.133000
     37 H7          -0.3980     0.5700     3.2520 ha         1 8Y8       0.120000
     38 H8           1.0210     1.5820     4.7170 ha         1 8Y8       0.122000
     39 H9           3.4650    -1.5200     3.1620 h4         1 8Y8       0.163000
     40 H10          9.1890     0.0180    15.0750 hc         1 8Y8       0.002367
     41 H11          9.8520     1.0420    14.1220 hc         1 8Y8       0.002367
     42 H12          9.4170     1.6870    15.5850 hc         1 8Y8       0.002367
     43 H13          3.8370    -0.9390    -0.5730 h1         1 8Y8       0.024367
     44 H14          3.5140     0.8650    -0.4110 h1         1 8Y8       0.024367
     45 H15          4.9580     0.5740     0.1740 h1         1 8Y8       0.024367
     46 H16          2.3510     2.1850     9.7890 hc         1 8Y8       0.041700
     47 H17          3.4270     3.0860     8.7200 hc         1 8Y8       0.041700
     48 H18          7.0830     1.3740    14.8130 h1         1 8Y8       0.037200
     49 H19          7.8720     2.4660    13.9400 h1         1 8Y8       0.037200
     50 H20          1.8230     2.1640     7.2570 hn         1 8Y8       0.165500
@<TRIPOS>BOND
     1     1    11 1   
     2     1    23 3   
     3     2     5 ar  
     4     2    11 ar  
     5     2    31 1   
     6     3     6 ar  
     7     3    14 ar  
     8     3    32 1   
     9     4     7 ar  
    10     4    14 ar  
    11     4    33 1   
    12     5    15 ar  
    13     5    34 1   
    14     6    16 ar  
    15     6    35 1   
    16     7    16 ar  
    17     7    36 1   
    18     8    11 ar  
    19     8    12 ar  
    20     8    37 1   
    21     9    13 1   
    22     9    17 2   
    23     9    38 1   
    24    10    13 2   
    25    10    29 1   
    26    10    39 1   
    27    12    13 1   
    28    12    15 ar  
    29    14    21 1   
    30    15    28 1   
    31    16    30 1   
    32    17    24 1   
    33    17    29 1   
    34    18    21 1   
    35    18    24 1   
    36    18    25 2   
    37    19    22 1   
    38    19    40 1   
    39    19    41 1   
    40    19    42 1   
    41    20    28 1   
    42    20    43 1   
    43    20    44 1   
    44    20    45 1   
    45    21    46 1   
    46    21    47 1   
    47    22    30 1   
    48    22    48 1   
    49    22    49 1   
    50    24    50 1   
    51    26    30 2   
    52    27    30 2   
@<TRIPOS>SUBSTRUCTURE
     1 8Y8         1 TEMP              0 ****  ****    0 ROOT
