@<TRIPOS>MOLECULE
molecule
   50    52     1     0     0
SMALL
bcc


@<TRIPOS>ATOM
      1 C1          -2.1340     0.0000     1.2070 cg         1 8Y8       0.246800
      2 C2           0.0000     0.0000     0.0000 ca         1 8Y8      -0.030000
      3 C3           5.5840     2.2370    10.2370 ca         1 8Y8      -0.143000
      4 C4           3.9940     0.7060    11.1650 ca         1 8Y8      -0.143000
      5 C5           1.3790     0.0000     0.0000 ca         1 8Y8      -0.251000
      6 C6           6.5270     1.8160    11.1570 ca         1 8Y8      -0.001000
      7 C7           4.9340     0.2890    12.0890 ca         1 8Y8      -0.001000
      8 C8          -0.0050    -0.0000     2.4190 ca         1 8Y8      -0.050000
      9 C9           1.8600     0.8960     4.7280 cc         1 8Y8      -0.198000
     10 C10          3.1250    -0.8680     3.9580 cd         1 8Y8      -0.097100
     11 C11         -0.7020    -0.0000     1.2090 ca         1 8Y8      -0.050000
     12 C12          1.3840    -0.0000     2.4150 ca         1 8Y8      -0.055000
     13 C13          2.1310    -0.0010     3.6970 cc         1 8Y8      -0.055000
     14 C14          4.3170     1.6850    10.2430 ca         1 8Y8       0.010700
     15 C15          2.0780     0.0000     1.1980 ca         1 8Y8       0.130100
     16 C16          6.2010     0.8410    12.0820 ca         1 8Y8      -0.485500
     17 C17          2.6300     0.7530     5.8130 cd         1 8Y8       0.089500
     18 C18          3.3770     1.3030     8.0010 c          1 8Y8       0.625100
     19 C19          9.0120     1.0520    14.8060 c3         1 8Y8      -0.084100
     20 C20          4.0770    -0.0010    -0.0850 c3         1 8Y8       0.108700
     21 C21          3.2880     2.1490     9.2460 c3         1 8Y8      -0.133100
     22 C22          7.8140     1.3870    14.0140 c3         1 8Y8      -0.205600
     23 N23         -3.2690     0.0200     1.2010 n1         1 8Y8      -0.367800
     24 N24          2.5480     1.5380     6.9660 ns         1 8Y8      -0.433100
     25 O25          4.1960     0.4110     7.9310 o          1 8Y8      -0.578100
     26 O26          7.4540    -1.0340    13.2490 o          1 8Y8      -0.658800
     27 O27          8.6000     0.1000    11.8580 o          1 8Y8      -0.658800
     28 O28          3.4340    -0.0010     1.1910 os         1 8Y8      -0.347900
     29 S29          3.7620    -0.5700     5.5700 ss         1 8Y8      -0.006800
     30 S30          7.4570     0.1920    12.6000 sy         1 8Y8       1.446300
     31 H1          -0.4410    -0.0510    -0.9880 ha         1 8Y8       0.147000
     32 H2           5.9260     2.9860     9.5330 ha         1 8Y8       0.154000
     33 H3           3.0890     0.2870    10.7420 ha         1 8Y8       0.154000
     34 H4           2.2110     0.3950    -0.5700 ha         1 8Y8       0.162000
     35 H5           7.5600     2.1150    11.0300 ha         1 8Y8       0.171500
     36 H6           4.4990    -0.5190    12.6640 ha         1 8Y8       0.171500
     37 H7          -0.3980     0.5700     3.2520 ha         1 8Y8       0.150000
     38 H8           1.0210     1.5820     4.7170 ha         1 8Y8       0.143000
     39 H9           3.4650    -1.5200     3.1620 h4         1 8Y8       0.186000
     40 H10          9.1890     0.0180    15.0750 hc         1 8Y8       0.033700
     41 H11          9.8520     1.0420    14.1220 hc         1 8Y8       0.033700
     42 H12          9.4170     1.6870    15.5850 hc         1 8Y8       0.033700
     43 H13          3.8370    -0.9390    -0.5730 h1         1 8Y8       0.066700
     44 H14          3.5140     0.8650    -0.4110 h1         1 8Y8       0.066700
     45 H15          4.9580     0.5740     0.1740 h1         1 8Y8       0.066700
     46 H16          2.3510     2.1850     9.7890 hc         1 8Y8       0.083200
     47 H17          3.4270     3.0860     8.7200 hc         1 8Y8       0.083200
     48 H18          7.0830     1.3740    14.8130 h1         1 8Y8       0.070700
     49 H19          7.8720     2.4660    13.9400 h1         1 8Y8       0.070700
     50 H20          1.8230     2.1640     7.2570 hn         1 8Y8       0.329500
@<TRIPOS>BOND
     1    23     1 3   
     2     1    11 1   
     3     2    11 ar  
     4     2     5 ar  
     5    11     8 ar  
     6     5    15 ar  
     7     8    12 ar  
     8    26    30 2   
     9    19    22 1   
    10    15    12 ar  
    11    15    28 1   
    12    12    13 1   
    13    22    30 1   
    14    30    27 2   
    15    30    16 1   
    16    20    28 1   
    17     6    16 ar  
    18     6     3 ar  
    19    13     9 1   
    20    13    10 2   
    21     9    17 2   
    22    16     7 ar  
    23    10    29 1   
    24     3    14 ar  
    25    17    29 1   
    26    17    24 1   
    27     7     4 ar  
    28    24    18 1   
    29    14     4 ar  
    30    14    21 1   
    31    18    21 1   
    32    18    25 2   
    33     2    31 1   
    34     3    32 1   
    35     4    33 1   
    36     5    34 1   
    37     6    35 1   
    38     7    36 1   
    39     8    37 1   
    40     9    38 1   
    41    10    39 1   
    42    19    40 1   
    43    19    41 1   
    44    19    42 1   
    45    20    43 1   
    46    20    44 1   
    47    20    45 1   
    48    21    46 1   
    49    21    47 1   
    50    22    48 1   
    51    22    49 1   
    52    24    50 1   
@<TRIPOS>SUBSTRUCTURE
     1 8Y8         1 TEMP              0 ****  ****    0 ROOT
