@<TRIPOS>MOLECULE
8YA
   57    61     1     0     0
SMALL
bcc


@<TRIPOS>ATOM
      1 C10          0.0000     0.0000     0.0000 ca         1 8YA      -0.094000
      2 C13         -0.7940    -0.0200     3.6940 c3         1 8YA       0.059200
      3 C20          4.1190    -0.0560     7.3970 ca         1 8YA       0.515200
      4 C22          5.9200    -1.3490     8.1690 c3         1 8YA       0.135300
      5 C02          2.4220    -1.2420     4.3350 ca         1 8YA      -0.009600
      6 C03          2.0880    -0.0190     3.7280 cp         1 8YA      -0.025000
      7 C04          1.3700    -0.0130     2.4330 cp         1 8YA       0.008000
      8 C05          2.0910     0.0000     1.2210 ca         1 8YA      -0.234900
      9 C06          3.4690    -0.0000     0.9070 cc         1 8YA       0.427800
     10 N07          3.6020     0.0150    -0.3880 nd         1 8YA      -0.626100
     11 N08          2.3400     0.0000    -0.9930 na         1 8YA       0.427900
     12 C09          1.3930     0.0000     0.0000 ca         1 8YA      -0.191200
     13 C11         -0.6910    -0.0020     1.1920 ca         1 8YA      -0.059000
     14 C12         -0.0170    -0.0070     2.4030 ca         1 8YA      -0.094300
     15 C14          2.4250     1.1820     4.3330 ca         1 8YA       0.090600
     16 F15          2.1040     2.3560     3.7470 f          1 8YA      -0.098900
     17 C16          3.1050     1.1680     5.5600 ca         1 8YA       0.365600
     18 N17          3.4560     2.3000     6.1890 nb         1 8YA      -0.567000
     19 C18          4.0940     2.2550     7.3330 ca         1 8YA       0.628900
     20 N19          4.4180     1.1200     7.9330 nb         1 8YA      -0.657000
     21 N21          4.4630    -1.2310     8.0330 nh         1 8YA      -0.505300
     22 C23          6.2690    -2.7390     8.7120 c3         1 8YA       0.043500
     23 N24          5.5080    -2.9600     9.9520 n          1 8YA      -0.118800
     24 C25          6.1260    -3.3640    11.0790 c          1 8YA       0.587100
     25 C27          6.2620    -4.0380    13.4610 c3         1 8YA      -0.036200
     26 N28          5.4830    -4.2540    14.6890 nz         1 8YA       0.081400
     27 O29          7.3240    -3.5510    11.0800 o          1 8YA      -0.639100
     28 C30          4.0560    -2.7280     9.9270 c3         1 8YA       0.043500
     29 C31          3.7950    -1.3380     9.3370 c3         1 8YA       0.135300
     30 C32          3.4340    -0.0740     6.1580 ca         1 8YA      -0.224600
     31 C33          3.0810    -1.2720     5.5250 ca         1 8YA      -0.087000
     32 H101        -0.5410     0.0040    -0.9390 ha         1 8YA       0.108000
     33 H131        -0.4210    -0.8120     4.3320 hc         1 8YA       0.009700
     34 H132        -0.6780     0.9330     4.1950 hc         1 8YA       0.009700
     35 H133        -1.8430    -0.1910     3.4820 hc         1 8YA       0.009700
     36 H221         6.3850    -1.2140     7.2000 h1         1 8YA       0.034200
     37 H222         6.2800    -0.5930     8.8570 h1         1 8YA       0.034200
     38 H262         4.8400    -2.6620    12.6240 hc         1 8YA       0.046200
     39 H261         4.5790    -4.3490    12.1620 hc         1 8YA       0.046200
     40 H061         4.2800     0.0060     1.6250 h4         1 8YA       0.011800
     41 H081         2.1590     0.0070    -1.9770 hn         1 8YA       0.157700
     42 H111        -1.7750     0.0010     1.1820 ha         1 8YA       0.111000
     43 H181         4.3610     3.1890     7.8130 h5         1 8YA       0.007100
     44 H232         6.0010    -3.4920     7.9820 h1         1 8YA       0.038700
     45 H231         7.3310    -2.7900     8.9240 h1         1 8YA       0.038700
     46 H272         7.0200    -3.2860    13.6420 hx         1 8YA       0.101700
     47 H271         6.7370    -4.9660    13.1680 hx         1 8YA       0.101700
     48 H282         6.0920    -4.5630    15.4200 hn         1 8YA       0.222800
     49 H281         4.7820    -4.9490    14.5210 hn         1 8YA       0.222800
     50 H301         3.6640    -2.7730    10.9360 h1         1 8YA       0.038700
     51 H302         3.5780    -3.4800     9.3110 h1         1 8YA       0.038700
     52 H311         4.1890    -0.5830    10.0060 h1         1 8YA       0.034200
     53 H312         2.7290    -1.1960     9.2080 h1         1 8YA       0.034200
     54 H331         3.2820    -2.2200     6.0100 ha         1 8YA       0.133000
     55 H283         5.0200    -3.4040    14.9440 hn         1 8YA       0.222800
     56 Cl           1.9860    -2.7310     3.5560 cl         1 8YA       0.021600
     57 C26          5.3280    -3.5860    12.3380 c3         1 8YA      -0.118400
@<TRIPOS>BOND
     1     1    12 ar  
     2     1    13 ar  
     3     1    32 1   
     4     2    14 1   
     5     2    33 1   
     6     2    34 1   
     7     2    35 1   
     8     3    20 ar  
     9     3    21 1   
    10     3    30 ar  
    11     4    21 1   
    12     4    22 1   
    13     4    36 1   
    14     4    37 1   
    15     5     6 ar  
    16     5    31 ar  
    17     5    56 1   
    18     6     7 1   
    19     6    15 ar  
    20     7     8 ar  
    21     7    14 ar  
    22     8     9 1   
    23     8    12 ar  
    24     9    10 2   
    25     9    40 1   
    26    10    11 1   
    27    11    12 1   
    28    11    41 1   
    29    13    14 ar  
    30    13    42 1   
    31    15    16 1   
    32    15    17 ar  
    33    17    18 ar  
    34    17    30 ar  
    35    18    19 ar  
    36    19    20 ar  
    37    19    43 1   
    38    21    29 1   
    39    22    23 1   
    40    22    44 1   
    41    22    45 1   
    42    23    24 1   
    43    23    28 1   
    44    24    27 2   
    45    24    57 1   
    46    25    26 1   
    47    25    46 1   
    48    25    47 1   
    49    25    57 1   
    50    26    48 1   
    51    26    49 1   
    52    26    55 1   
    53    28    29 1   
    54    28    50 1   
    55    28    51 1   
    56    29    52 1   
    57    29    53 1   
    58    30    31 ar  
    59    31    54 1   
    60    38    57 1   
    61    39    57 1   
@<TRIPOS>SUBSTRUCTURE
     1 8YA         1 TEMP              0 ****  ****    0 ROOT
