@<TRIPOS>MOLECULE
molecule
   57    61     1     0     0
SMALL
bcc


@<TRIPOS>ATOM
      1 C10          0.0000     0.0000     0.0000 ca         1 8YA      -0.136000
      2 C13         -0.7940    -0.0200     3.6940 c3         1 8YA      -0.045800
      3 C20          4.1190    -0.0560     7.3970 ca         1 8YA       0.645200
      4 C22          5.9200    -1.3490     8.1690 c3         1 8YA       0.152300
      5 C02          2.4220    -1.2420     4.3350 ca         1 8YA       0.056400
      6 C03          2.0880    -0.0190     3.7280 cp         1 8YA      -0.041000
      7 C04          1.3700    -0.0130     2.4330 cp         1 8YA       0.001000
      8 C05          2.0910     0.0000     1.2210 ca         1 8YA      -0.222900
      9 C06          3.4690    -0.0000     0.9070 cc         1 8YA       0.373800
     10 N07          3.6020     0.0150    -0.3880 nd         1 8YA      -0.489100
     11 N08          2.3400     0.0000    -0.9930 na         1 8YA      -0.045100
     12 C09          1.3930     0.0000     0.0000 ca         1 8YA      -0.024200
     13 C11         -0.6910    -0.0020     1.1920 ca         1 8YA      -0.085000
     14 C12         -0.0170    -0.0070     2.4030 ca         1 8YA      -0.086300
     15 C14          2.4250     1.1820     4.3330 ca         1 8YA       0.113600
     16 F15          2.1040     2.3560     3.7470 f          1 8YA      -0.092900
     17 C16          3.1050     1.1680     5.5600 ca         1 8YA       0.407600
     18 N17          3.4560     2.3000     6.1890 nb         1 8YA      -0.690000
     19 C18          4.0940     2.2550     7.3330 ca         1 8YA       0.688900
     20 N19          4.4180     1.1200     7.9330 nb         1 8YA      -0.780000
     21 N21          4.4630    -1.2310     8.0330 nh         1 8YA      -0.719300
     22 C23          6.2690    -2.7390     8.7120 c3         1 8YA       0.101500
     23 N24          5.5080    -2.9600     9.9520 n          1 8YA      -0.470800
     24 C25          6.1260    -3.3640    11.0790 c          1 8YA       0.670100
     25 C27          6.2620    -4.0380    13.4610 c3         1 8YA       0.108800
     26 N28          5.4830    -4.2540    14.6890 nz         1 8YA      -0.813600
     27 O29          7.3240    -3.5510    11.0800 o          1 8YA      -0.599100
     28 C30          4.0560    -2.7280     9.9270 c3         1 8YA       0.101500
     29 C31          3.7950    -1.3380     9.3370 c3         1 8YA       0.152300
     30 C32          3.4340    -0.0740     6.1580 ca         1 8YA      -0.234600
     31 C33          3.0810    -1.2720     5.5250 ca         1 8YA      -0.107000
     32 H101        -0.5410     0.0040    -0.9390 ha         1 8YA       0.137000
     33 H131        -0.4210    -0.8120     4.3320 hc         1 8YA       0.045033
     34 H132        -0.6780     0.9330     4.1950 hc         1 8YA       0.045033
     35 H133        -1.8430    -0.1910     3.4820 hc         1 8YA       0.045033
     36 H221         6.3850    -1.2140     7.2000 h1         1 8YA       0.065950
     37 H222         6.2800    -0.5930     8.8570 h1         1 8YA       0.065950
     38 H262         4.8400    -2.6620    12.6240 hc         1 8YA       0.080200
     39 H261         4.5790    -4.3490    12.1620 hc         1 8YA       0.080200
     40 H061         4.2800     0.0060     1.6250 h4         1 8YA       0.058800
     41 H081         2.1590     0.0070    -1.9770 hn         1 8YA       0.338700
     42 H111        -1.7750     0.0010     1.1820 ha         1 8YA       0.141000
     43 H181         4.3610     3.1890     7.8130 h5         1 8YA       0.069100
     44 H232         6.0010    -3.4920     7.9820 h1         1 8YA       0.068450
     45 H231         7.3310    -2.7900     8.9240 h1         1 8YA       0.068450
     46 H272         7.0200    -3.2860    13.6420 hx         1 8YA       0.130700
     47 H271         6.7370    -4.9660    13.1680 hx         1 8YA       0.130700
     48 H282         6.0920    -4.5630    15.4200 hn         1 8YA       0.457467
     49 H281         4.7820    -4.9490    14.5210 hn         1 8YA       0.457467
     50 H301         3.6640    -2.7730    10.9360 h1         1 8YA       0.068450
     51 H302         3.5780    -3.4800     9.3110 h1         1 8YA       0.068450
     52 H311         4.1890    -0.5830    10.0060 h1         1 8YA       0.065950
     53 H312         2.7290    -1.1960     9.2080 h1         1 8YA       0.065950
     54 H331         3.2820    -2.2200     6.0100 ha         1 8YA       0.164000
     55 H283         5.0200    -3.4040    14.9440 hn         1 8YA       0.457467
     56 Cl           1.9860    -2.7310     3.5560 cl         1 8YA      -0.068400
     57 C26          5.3280    -3.5860    12.3380 c3         1 8YA      -0.195400
@<TRIPOS>BOND
     1    27    24 2
     2    25    57 1
     3    25    26 1
     4    24    57 1
     5    24    23 1
     6    56     5 1
     7    28    23 1
     8    28    29 1
     9    23    22 1
    10    29    21 1
    11    22     4 1
    12     5    31 ar
    13     5     6 ar
    14    31    30 ar
    15    11    10 1
    16    11    12 1
    17    10     9 2
    18    12     1 ar
    19    12     8 ar
    20     9     8 1
    21     1    13 ar
    22    21     4 1
    23    21     3 1
    24     8     7 ar
    25    13    14 ar
    26     7    14 ar
    27     7     6 1
    28    14     2 1
    29     6    15 ar
    30    30     3 ar
    31    30    17 ar
    32     3    20 ar
    33    15    17 ar
    34    15    16 1
    35    17    18 ar
    36    20    19 ar
    37    18    19 ar
    38     1    32 1
    39     2    33 1
    40     2    34 1
    41     2    35 1
    42     4    36 1
    43     4    37 1
    44    57    38 1
    45    57    39 1
    46     9    40 1
    47    11    41 1
    48    13    42 1
    49    19    43 1
    50    22    44 1
    51    22    45 1
    52    25    46 1
    53    25    47 1
    54    26    48 1
    55    26    49 1
    56    28    50 1
    57    28    51 1
    58    29    52 1
    59    29    53 1
    60    31    54 1
    61    55    26 1
@<TRIPOS>SUBSTRUCTURE
     1 8YA         1 TEMP              0 ****  ****    0 ROOT
