@<TRIPOS>MOLECULE
8YB
   56    59     1     0     0
SMALL
bcc


@<TRIPOS>ATOM
      1 C1           0.0000     0.0000     0.0000 c3         1 8YB       0.037900
      2 C2           1.5300     0.0000     0.0000 c3         1 8YB       0.005400
      3 O4           1.8370     1.2360     2.3440 o          1 8YB      -0.589300
      4 O5           1.8380    -1.2370     2.3430 o          1 8YB      -0.589300
      5 C7           4.5790    -1.1960     1.5080 ca         1 8YB       0.008500
      6 C8           5.9560    -1.1960     1.3880 ca         1 8YB      -0.115500
      7 C9           6.6440     0.0010     1.3230 ca         1 8YB      -0.030300
      8 C10          5.9540     1.1990     1.3770 ca         1 8YB      -0.115500
      9 C11          4.5770     1.1980     1.4970 ca         1 8YB       0.008500
     10 C12          8.1450     0.0020     1.1920 c3         1 8YB      -0.036100
     11 C13          8.5220    -0.0040    -0.2680 c          1 8YB       0.541100
     12 C16         10.1670    -0.0100    -1.9670 cc         1 8YB       0.401300
     13 C19         10.3660    -0.0190    -4.4260 cc         1 8YB      -0.238000
     14 C21         10.2320    -0.0240    -5.8360 c          1 8YB       0.696300
     15 C24         10.3260    -2.5130    -5.8850 ca         1 8YB      -0.044000
     16 C27         10.2990    -2.5030    -8.6600 ca         1 8YB      -0.119000
     17 C30         12.8840    -0.0280    -4.3670 ca         1 8YB      -0.131500
     18 C31         13.1260     0.7810    -5.4780 ca         1 8YB      -0.093000
     19 C32         14.3680     0.7720    -6.0790 ca         1 8YB      -0.089000
     20 C33         15.3740    -0.0380    -5.5810 ca         1 8YB      -0.091000
     21 C34         15.1410    -0.8430    -4.4800 ca         1 8YB      -0.039600
     22 C35         13.9030    -0.8380    -3.8660 ca         1 8YB      -0.071000
     23 S3           2.1340     0.0000     1.7110 sy         1 8YB       0.875300
     24 C6           3.8890     0.0010     1.5570 ca         1 8YB      -0.154500
     25 O14          7.6570    -0.0090    -1.1170 o          1 8YB      -0.590100
     26 N15          9.8210    -0.0040    -0.6280 ns         1 8YB      -0.055400
     27 N17         11.3870    -0.0160    -2.4130 nd         1 8YB      -0.611000
     28 C18         11.5540    -0.0210    -3.7180 cd         1 8YB       0.459800
     29 S20          9.0470    -0.0170    -3.2570 ss         1 8YB      -0.156300
     30 O22         10.0860     1.0250    -6.4370 o          1 8YB      -0.541100
     31 C23         10.2710    -1.3030    -6.5770 ca         1 8YB      -0.180600
     32 C25         10.3670    -3.7030    -6.5820 ca         1 8YB      -0.119000
     33 C26         10.3540    -3.6980    -7.9650 ca         1 8YB      -0.058000
     34 C28         10.2530    -1.3050    -7.9740 ca         1 8YB       0.010400
     35 Cl2         10.1850     0.1940    -8.8460 cl         1 8YB       0.026600
     36 Cl3         16.4090    -1.8570    -3.8630 cl         1 8YB      -0.028400
     37 H1          -0.3610     0.0000    -1.0210 hc         1 8YB       0.012700
     38 H2          -0.3610     0.8840     0.5110 hc         1 8YB       0.012700
     39 H3          -0.3610    -0.8850     0.5100 hc         1 8YB       0.012700
     40 H4           1.8910     0.8850    -0.5110 h1         1 8YB       0.064200
     41 H5           1.8910    -0.8850    -0.5110 h1         1 8YB       0.064200
     42 H6           4.0400    -2.1340     1.5560 ha         1 8YB       0.124000
     43 H7           6.4960    -2.1350     1.3470 ha         1 8YB       0.108500
     44 H8           6.4940     2.1370     1.3290 ha         1 8YB       0.108500
     45 H9           4.0370     2.1360     1.5380 ha         1 8YB       0.124000
     46 H10          8.5500    -0.8810     1.6720 hc         1 8YB       0.039200
     47 H11          8.5490     0.8880     1.6660 hc         1 8YB       0.039200
     48 H13         10.2870    -2.5070    -9.7430 ha         1 8YB       0.118000
     49 H14         12.3390     1.4140    -5.8700 ha         1 8YB       0.132000
     50 H15         14.5570     1.4000    -6.9410 ha         1 8YB       0.110000
     51 H16         16.3470    -0.0430    -6.0570 ha         1 8YB       0.114000
     52 H17         13.7220    -1.4680    -3.0040 ha         1 8YB       0.122000
     53 H18         10.5340     0.0070     0.0740 hn         1 8YB       0.180500
     54 H19         10.4090    -4.6430    -6.0450 ha         1 8YB       0.109000
     55 H20         10.3880    -4.6350    -8.5070 ha         1 8YB       0.105000
     56 H12         10.3360    -2.5190    -4.8010 ha         1 8YB       0.114000
@<TRIPOS>BOND
     1     1     2 1   
     2     1    37 1   
     3     1    38 1   
     4     1    39 1   
     5     2    23 1   
     6     2    40 1   
     7     2    41 1   
     8     3    23 2   
     9     4    23 2   
    10     5     6 ar  
    11     5    24 ar  
    12     5    42 1   
    13     6     7 ar  
    14     6    43 1   
    15     7     8 ar  
    16     7    10 1   
    17     8     9 ar  
    18     8    44 1   
    19     9    24 ar  
    20     9    45 1   
    21    10    11 1   
    22    10    46 1   
    23    10    47 1   
    24    11    25 2   
    25    11    26 1   
    26    12    26 1   
    27    12    27 2   
    28    12    29 1   
    29    13    14 1   
    30    13    28 2   
    31    13    29 1   
    32    14    30 2   
    33    14    31 1   
    34    15    31 ar  
    35    15    32 ar  
    36    15    56 1   
    37    16    33 ar  
    38    16    34 ar  
    39    16    48 1   
    40    17    18 ar  
    41    17    22 ar  
    42    17    28 1   
    43    18    19 ar  
    44    18    49 1   
    45    19    20 ar  
    46    19    50 1   
    47    20    21 ar  
    48    20    51 1   
    49    21    22 ar  
    50    21    36 1   
    51    22    52 1   
    52    23    24 1   
    53    26    53 1   
    54    27    28 1   
    55    31    34 ar  
    56    32    33 ar  
    57    32    54 1   
    58    33    55 1   
    59    34    35 1   
@<TRIPOS>SUBSTRUCTURE
     1 8YB         1 TEMP              0 ****  ****    0 ROOT
