@<TRIPOS>MOLECULE
molecule
   56    59     1     0     0
SMALL
bcc


@<TRIPOS>ATOM
      1 C1           0.0000     0.0000     0.0000 c3         1 8YB      -0.074100
      2 C2           1.5300     0.0000     0.0000 c3         1 8YB      -0.205600
      3 O4           1.8370     1.2360     2.3440 o          1 8YB      -0.619300
      4 O5           1.8380    -1.2370     2.3430 o          1 8YB      -0.619300
      5 C7           4.5790    -1.1960     1.5080 ca         1 8YB      -0.025500
      6 C8           5.9560    -1.1960     1.3880 ca         1 8YB      -0.131500
      7 C9           6.6440     0.0010     1.3230 ca         1 8YB      -0.025300
      8 C10          5.9540     1.1990     1.3770 ca         1 8YB      -0.131500
      9 C11          4.5770     1.1980     1.4970 ca         1 8YB      -0.025500
     10 C12          8.1450     0.0020     1.1920 c3         1 8YB      -0.108100
     11 C13          8.5220    -0.0040    -0.2680 c          1 8YB       0.655100
     12 C16         10.1670    -0.0100    -1.9670 cc         1 8YB       0.533300
     13 C19         10.3660    -0.0190    -4.4260 cd         1 8YB      -0.299000
     14 C21         10.2320    -0.0240    -5.8360 c          1 8YB       0.628300
     15 C24         10.3260    -2.5130    -5.8850 ca         1 8YB      -0.071000
     16 C27         10.2990    -2.5030    -8.6600 ca         1 8YB      -0.139000
     17 C30         12.8840    -0.0280    -4.3670 ca         1 8YB      -0.123500
     18 C31         13.1260     0.7810    -5.4780 ca         1 8YB      -0.107000
     19 C32         14.3680     0.7720    -6.0790 ca         1 8YB      -0.120000
     20 C33         15.3740    -0.0380    -5.5810 ca         1 8YB      -0.113000
     21 C34         15.1410    -0.8430    -4.4800 ca         1 8YB       0.021400
     22 C35         13.9030    -0.8380    -3.8660 ca         1 8YB      -0.090000
     23 S3           2.1340     0.0000     1.7110 sy         1 8YB       1.194300
     24 C6           3.8890     0.0010     1.5570 ca         1 8YB      -0.292500
     25 O14          7.6570    -0.0090    -1.1170 o          1 8YB      -0.572100
     26 N15          9.8210    -0.0040    -0.6280 ns         1 8YB      -0.516400
     27 N17         11.3870    -0.0160    -2.4130 nc         1 8YB      -0.732000
     28 C18         11.5540    -0.0210    -3.7180 cc         1 8YB       0.494800
     29 S20          9.0470    -0.0170    -3.2570 ss         1 8YB       0.004700
     30 O22         10.0860     1.0250    -6.4370 o          1 8YB      -0.497100
     31 C23         10.2710    -1.3030    -6.5770 ca         1 8YB      -0.167600
     32 C25         10.3670    -3.7030    -6.5820 ca         1 8YB      -0.144000
     33 C26         10.3540    -3.6980    -7.9650 ca         1 8YB      -0.091000
     34 C28         10.2530    -1.3050    -7.9740 ca         1 8YB       0.078400
     35 Cl2         10.1850     0.1940    -8.8460 cl         1 8YB      -0.069400
     36 Cl3         16.4090    -1.8570    -3.8630 cl         1 8YB      -0.110400
     37 H1          -0.3610     0.0000    -1.0210 hc         1 8YB       0.052033
     38 H2          -0.3610     0.8840     0.5110 hc         1 8YB       0.052033
     39 H3          -0.3610    -0.8850     0.5100 hc         1 8YB       0.052033
     40 H4           1.8910     0.8850    -0.5110 h1         1 8YB       0.099700
     41 H5           1.8910    -0.8850    -0.5110 h1         1 8YB       0.099700
     42 H6           4.0400    -2.1340     1.5560 ha         1 8YB       0.154000
     43 H7           6.4960    -2.1350     1.3470 ha         1 8YB       0.137500
     44 H8           6.4940     2.1370     1.3290 ha         1 8YB       0.137500
     45 H9           4.0370     2.1360     1.5380 ha         1 8YB       0.154000
     46 H10          8.5500    -0.8810     1.6720 hc         1 8YB       0.079200
     47 H11          8.5490     0.8880     1.6660 hc         1 8YB       0.079200
     48 H13         10.2870    -2.5070    -9.7430 ha         1 8YB       0.148000
     49 H14         12.3390     1.4140    -5.8700 ha         1 8YB       0.158000
     50 H15         14.5570     1.4000    -6.9410 ha         1 8YB       0.143000
     51 H16         16.3470    -0.0430    -6.0570 ha         1 8YB       0.144000
     52 H17         13.7220    -1.4680    -3.0040 ha         1 8YB       0.154000
     53 H18         10.5340     0.0070     0.0740 hn         1 8YB       0.348500
     54 H19         10.4090    -4.6430    -6.0450 ha         1 8YB       0.138000
     55 H20         10.3880    -4.6350    -8.5070 ha         1 8YB       0.138000
     56 H12         10.3360    -2.5190    -4.8010 ha         1 8YB       0.144000
@<TRIPOS>BOND
     1    36    21 1   
     2    20    21 ar  
     3    20    19 ar  
     4    21    22 ar  
     5    33    32 ar  
     6    33    16 ar  
     7    32    15 ar  
     8    19    18 ar  
     9    16    34 ar  
    10    22    17 ar  
    11     3    23 2   
    12     1     2 1   
    13    15    31 ar  
    14     2    23 1   
    15    18    17 ar  
    16    17    28 1   
    17    34    31 ar  
    18    34    35 1   
    19    23     4 2   
    20    23    24 1   
    21    31    14 1   
    22     9    24 ar  
    23     9     8 ar  
    24    28    27 1   
    25    28    13 2   
    26    24     5 ar  
    27    27    12 2   
    28    14    13 1   
    29    14    30 2   
    30     8     7 ar  
    31    13    29 1   
    32    12    26 1   
    33    12    29 1   
    34     5     6 ar  
    35    26    11 1   
    36     7     6 ar  
    37     7    10 1   
    38    11    10 1   
    39    11    25 2   
    40     1    37 1   
    41     1    38 1   
    42     1    39 1   
    43     2    40 1   
    44     2    41 1   
    45     5    42 1   
    46     6    43 1   
    47     8    44 1   
    48     9    45 1   
    49    10    46 1   
    50    10    47 1   
    51    15    56 1   
    52    16    48 1   
    53    18    49 1   
    54    19    50 1   
    55    20    51 1   
    56    22    52 1   
    57    26    53 1   
    58    32    54 1   
    59    33    55 1   
@<TRIPOS>SUBSTRUCTURE
     1 8YB         1 TEMP              0 ****  ****    0 ROOT
