@<TRIPOS>MOLECULE
molecule
   40    41     1     0     0
SMALL
bcc


@<TRIPOS>ATOM
      1 O1           0.0000     0.0000     0.0000 o          1 8YC      -0.550100
      2 C5           1.2130     0.0000     0.0000 c          1 8YC       0.660100
      3 N1           1.8870     0.0000     1.1670 n          1 8YC      -0.490800
      4 C1           1.2810    -0.0000     2.5070 c3         1 8YC       0.174800
      5 C6           0.4750    -1.2180     2.6910 c1         1 8YC       0.220200
      6 N2          -0.2230    -1.9440     2.7420 n1         1 8YC      -0.343300
      7 C3           2.4350     0.0250     3.5310 c3         1 8YC      -0.122900
      8 C4           3.6160     0.6100     2.7110 c3         1 8YC      -0.122900
      9 C2           3.3550    -0.0070     1.3120 c3         1 8YC       0.174800
     10 C7           3.8690    -1.3840     1.2510 c1         1 8YC       0.220200
     11 N3           4.2780    -2.4440     1.2200 n1         1 8YC      -0.343300
     12 C8           1.8970    -0.5080    -1.4650 c3         1 8YC      -0.014200
     13 N4           0.7820    -1.9170    -1.9910 n7         1 8YC      -0.820200
     14 C9           0.6260    -1.5090    -3.4910 c3         1 8YC       0.246200
     15 C14          2.1190    -0.9410    -4.0530 c3         1 8YC       0.098400
     16 O2           2.1680    -1.6660    -5.5000 oh         1 8YC      -0.605800
     17 C10         -0.4810    -0.8790    -3.8460 c3         1 8YC      -0.080400
     18 C11         -1.5120    -1.7570    -4.7370 c3         1 8YC      -0.138900
     19 C12         -0.6020    -3.2110    -4.8040 c3         1 8YC      -0.138900
     20 C13          0.4410    -2.9400    -3.7120 c3         1 8YC      -0.080400
     21 H1           0.6620     0.8800     2.6290 h1         1 8YC       0.088700
     22 H2           2.4010     0.7050     4.3740 hc         1 8YC       0.080200
     23 H3           2.3220    -1.0240     3.7750 hc         1 8YC       0.080200
     24 H4           3.6290     1.5270     3.2880 hc         1 8YC       0.080200
     25 H5           4.3940    -0.0750     3.0250 hc         1 8YC       0.080200
     26 H6           3.8090     0.6050     0.5420 h1         1 8YC       0.088700
     27 H9           2.8830    -0.9490    -1.3790 h1         1 8YC       0.057700
     28 H10          1.8420     0.1320    -2.3370 h1         1 8YC       0.057700
     29 H11          1.2230    -2.6590    -1.4840 hn         1 8YC       0.402800
     30 H13          2.9210    -1.2730    -3.4050 h1         1 8YC       0.064200
     31 H14          1.9170     0.1210    -3.9850 h1         1 8YC       0.064200
     32 H15          2.7130    -1.1050    -6.0270 ho         1 8YC       0.382000
     33 H16         -1.0980    -0.5990    -3.0000 hc         1 8YC       0.067700
     34 H17         -0.2800     0.1020    -4.2600 hc         1 8YC       0.067700
     35 H18         -2.3000    -2.4220    -4.4050 hc         1 8YC       0.064950
     36 H19         -1.5380    -1.1590    -5.6400 hc         1 8YC       0.064950
     37 H20          0.0650    -3.2010    -5.6570 hc         1 8YC       0.064950
     38 H21         -1.4580    -3.8180    -5.0730 hc         1 8YC       0.064950
     39 H22          1.3890    -3.2920    -4.1000 hc         1 8YC       0.067700
     40 H23         -0.0440    -3.4780    -2.9050 hc         1 8YC       0.067700
@<TRIPOS>BOND
     1    19    18 1   
     2    19    20 1   
     3    18    17 1   
     4    20    14 1   
     5    17    14 1   
     6    14    15 1   
     7    14    13 1   
     8    15    16 1   
     9    13    12 1   
    10    12     2 1   
    11     6     5 3   
    12     5     4 1   
    13     2     1 2   
    14     2     3 1   
    15    11    10 3   
    16     3     4 1   
    17     3     9 1   
    18     4     7 1   
    19    10     9 1   
    20     9     8 1   
    21     7     8 1   
    22     4    21 1   
    23     7    22 1   
    24     7    23 1   
    25     8    24 1   
    26     8    25 1   
    27     9    26 1   
    28    12    27 1   
    29    12    28 1   
    30    13    29 1   
    31    15    30 1   
    32    15    31 1   
    33    16    32 1   
    34    17    33 1   
    35    17    34 1   
    36    18    35 1   
    37    18    36 1   
    38    19    37 1   
    39    19    38 1   
    40    20    39 1   
    41    20    40 1   
@<TRIPOS>SUBSTRUCTURE
     1 8YC         1 TEMP              0 ****  ****    0 ROOT
