@<TRIPOS>MOLECULE
8YD
   54    58     1     0     0
SMALL
bcc


@<TRIPOS>ATOM
      1 C10          0.0000     0.0000     0.0000 ca         1 8YD      -0.104000
      2 C13         -0.7970     0.0020     3.6920 c3         1 8YD       0.059200
      3 C20          4.1150     0.0210     7.3990 ca         1 8YD       0.541200
      4 C22          5.9280     1.3040     8.1630 c3         1 8YD       0.134800
      5 C26          5.3690     3.5350    12.3400 c3         1 8YD      -0.101400
      6 C02          2.4230     1.2210     4.3380 ca         1 8YD      -0.020600
      7 C03          2.0850     0.0010     3.7290 cp         1 8YD      -0.034000
      8 C04          1.3680     0.0010     2.4330 cp         1 8YD       0.023000
      9 C05          2.0910     0.0000     1.2220 ca         1 8YD      -0.235900
     10 C06          3.4680     0.0000     0.9090 cc         1 8YD       0.435800
     11 N07          3.6030    -0.0010    -0.3860 nd         1 8YD      -0.634100
     12 N08          2.3400    -0.0010    -0.9920 na         1 8YD       0.420900
     13 C09          1.3920     0.0000     0.0000 ca         1 8YD      -0.191200
     14 C11         -0.6920     0.0010     1.1900 ca         1 8YD      -0.057000
     15 C12         -0.0190     0.0010     2.4020 ca         1 8YD      -0.098300
     16 C14          2.4180    -1.2030     4.3320 ca         1 8YD       0.082600
     17 F15          2.0920    -2.3750     3.7430 f          1 8YD      -0.104900
     18 C16          3.0970    -1.1940     5.5580 ca         1 8YD       0.368600
     19 N17          3.4440    -2.3300     6.1840 nb         1 8YD      -0.591000
     20 C18          4.0880    -2.2900     7.3260 ca         1 8YD       0.636900
     21 N19          4.4150    -1.1580     7.9290 nb         1 8YD      -0.655000
     22 N21          4.4680     1.1930     8.0360 nh         1 8YD      -0.516300
     23 C23          6.2850     2.6910     8.7060 c3         1 8YD       0.050000
     24 N24          5.5330     2.9140     9.9510 n          1 8YD      -0.165800
     25 C25          6.1580     3.3130    11.0760 c          1 8YD       0.590100
     26 C27          6.3120     3.9800    13.4590 c3         1 8YD       0.020900
     27 O28          7.3580     3.4940    11.0700 o          1 8YD      -0.643100
     28 C29          4.0800     2.6870     9.9360 c3         1 8YD       0.050000
     29 C30          3.8090     1.3000     9.3440 c3         1 8YD       0.134800
     30 C31          3.4300     0.0440     6.1600 ca         1 8YD      -0.232600
     31 C32          3.0810     1.2450     5.5300 ca         1 8YD      -0.069000
     32 H101        -0.5400    -0.0010    -0.9390 ha         1 8YD       0.105000
     33 H132        -0.7120    -0.9680     4.1660 hc         1 8YD       0.011033
     34 H131        -1.8400     0.2130     3.4850 hc         1 8YD       0.011033
     35 H133        -0.4000     0.7630     4.3530 hc         1 8YD       0.011033
     36 H222         6.3860     1.1680     7.1910 h1         1 8YD       0.028450
     37 H221         6.2890     0.5450     8.8480 h1         1 8YD       0.028450
     38 H261         4.6230     4.3020    12.1700 hc         1 8YD       0.026700
     39 H262         4.8790     2.6120    12.6270 hc         1 8YD       0.026700
     40 H061         4.2790     0.0010     1.6280 h4         1 8YD       0.014800
     41 H081         2.1610    -0.0010    -1.9760 hn         1 8YD       0.154700
     42 H111        -1.7760     0.0000     1.1790 ha         1 8YD       0.108000
     43 H181         4.3560    -3.2250     7.8020 h5         1 8YD       0.003100
     44 H232         6.0130     3.4470     7.9790 h1         1 8YD       0.035700
     45 H231         7.3470     2.7390     8.9110 h1         1 8YD       0.035700
     46 H271         5.7440     4.1390    14.3680 hc         1 8YD       0.009700
     47 H273         7.0580     3.2140    13.6280 hc         1 8YD       0.009700
     48 H272         6.8010     4.9040    13.1720 hc         1 8YD       0.009700
     49 H291         3.6010     3.4420     9.3240 h1         1 8YD       0.035700
     50 H292         3.6940     2.7310    10.9470 h1         1 8YD       0.035700
     51 H301         2.7420     1.1620     9.2230 h1         1 8YD       0.028450
     52 H302         4.2040     0.5410    10.0090 h1         1 8YD       0.028450
     53 H321         3.2990     2.1920     6.0100 ha         1 8YD       0.140000
     54 Cl           1.9940     2.7140     3.5640 cl         1 8YD       0.010600
@<TRIPOS>BOND
     1     1    13 ar  
     2     1    14 ar  
     3     1    32 1   
     4     2    15 1   
     5     2    33 1   
     6     2    34 1   
     7     2    35 1   
     8     3    21 ar  
     9     3    22 1   
    10     3    30 ar  
    11     4    22 1   
    12     4    23 1   
    13     4    36 1   
    14     4    37 1   
    15     5    25 1   
    16     5    26 1   
    17     5    38 1   
    18     5    39 1   
    19     6     7 ar  
    20     6    31 ar  
    21     6    54 1   
    22     7     8 1   
    23     7    16 ar  
    24     8     9 ar  
    25     8    15 ar  
    26     9    10 1   
    27     9    13 ar  
    28    10    11 2   
    29    10    40 1   
    30    11    12 1   
    31    12    13 1   
    32    12    41 1   
    33    14    15 ar  
    34    14    42 1   
    35    16    17 1   
    36    16    18 ar  
    37    18    19 ar  
    38    18    30 ar  
    39    19    20 ar  
    40    20    21 ar  
    41    20    43 1   
    42    22    29 1   
    43    23    24 1   
    44    23    44 1   
    45    23    45 1   
    46    24    25 1   
    47    24    28 1   
    48    25    27 2   
    49    26    46 1   
    50    26    47 1   
    51    26    48 1   
    52    28    29 1   
    53    28    49 1   
    54    28    50 1   
    55    29    51 1   
    56    29    52 1   
    57    30    31 ar  
    58    31    53 1   
@<TRIPOS>SUBSTRUCTURE
     1 8YD         1 TEMP              0 ****  ****    0 ROOT
