@<TRIPOS>MOLECULE
8YF
   38    38     1     0     0
SMALL
bcc


@<TRIPOS>ATOM
      1 C62          0.0000     0.0000     0.0000 c3         1 8YF      -0.052100
      2 C61          1.5310     0.0000     0.0000 c3         1 8YF       0.207100
      3 O62          2.0060     1.1670    -0.6730 oh         1 8YF      -0.541800
      4 C6           2.0400     0.0000     1.4430 c3         1 8YF      -0.180700
      5 C7           3.5470     0.0010     1.4430 c          1 8YF       0.991600
      6 O71          4.1510     0.0010     0.3970 o          1 8YF      -0.883800
      7 O72          4.2190     0.0010     2.6060 o          1 8YF      -0.883800
      8 C5           1.5300     1.2490     2.1640 c3         1 8YF       0.157500
      9 C1           2.0640     1.2910     3.6070 c3         1 8YF       0.013800
     10 N4           2.0660     2.4620     1.5310 nu         1 8YF      -0.377000
     11 C3           2.8390     3.1680     2.4660 ce         1 8YF       0.070800
     12 C31          3.5010     4.3840     2.1780 c          1 8YF       0.965800
     13 O31          4.0740     4.9910     3.0650 o          1 8YF      -0.891300
     14 O32          3.4960     4.8740     0.9190 o          1 8YF      -0.891300
     15 C2           2.8830     2.5610     3.6720 c2         1 8YF      -0.150600
     16 S21          3.7520     3.1500     5.0860 ss         1 8YF      -0.303700
     17 C22          2.3590     3.4880     6.1920 c3         1 8YF       0.020700
     18 C23          2.8740     4.1420     7.4760 c3         1 8YF       0.174800
     19 N24          1.7470     4.4160     8.3710 nu         1 8YF      -0.537200
     20 C25          1.9660     5.0030     9.5890 c2         1 8YF       0.505100
     21 N26          3.1680     5.3180     9.9480 n2         1 8YF      -0.839100
     22 H1          -0.3610    -0.5530     0.8590 hc         1 8YF      -0.005300
     23 H2          -0.3610     1.0200     0.0490 hc         1 8YF      -0.005300
     24 H3          -0.3610    -0.4670    -0.9080 hc         1 8YF      -0.005300
     25 H4           1.8920    -0.8840    -0.5110 h1         1 8YF      -0.004300
     26 H5           2.0570     0.9970    -1.5990 ho         1 8YF       0.359000
     27 H6           1.6790    -0.8850     1.9540 hc         1 8YF       0.015700
     28 H8           0.4470     1.2750     2.1650 h1         1 8YF      -0.024300
     29 H9           2.6900     0.4290     3.8020 hc         1 8YF       0.029200
     30 H10          1.2420     1.3370     4.3110 hc         1 8YF       0.029200
     31 H11          1.9040     2.7410     0.5840 hn         1 8YF       0.330800
     32 H13          1.6620     4.1560     5.7010 h1         1 8YF       0.025700
     33 H14          1.8580     2.5590     6.4360 h1         1 8YF       0.025700
     34 H15          3.3750     5.0720     7.2320 h1         1 8YF       0.027200
     35 H16          3.5720     3.4750     7.9670 h1         1 8YF       0.027200
     36 H17          1.1330     5.2040    10.2510 h5         1 8YF      -0.026200
     37 H18          3.9380     5.1320     9.3360 hn         1 8YF       0.337400
     38 H20          0.8170     4.1750     8.0910 hn         1 8YF       0.287800
@<TRIPOS>BOND
     1     1     2 1   
     2     1    22 1   
     3     1    23 1   
     4     1    24 1   
     5     2     3 1   
     6     2     4 1   
     7     2    25 1   
     8     3    26 1   
     9     4     5 1   
    10     4     8 1   
    11     4    27 1   
    12     5     6 1   
    13     5     7 1   
    14     8     9 1   
    15     8    10 1   
    16     8    28 1   
    17     9    15 1   
    18     9    29 1   
    19     9    30 1   
    20    10    11 1   
    21    10    31 1   
    22    11    12 1   
    23    11    15 2   
    24    12    13 1   
    25    12    14 1   
    26    15    16 1   
    27    16    17 1   
    28    17    18 1   
    29    17    32 1   
    30    17    33 1   
    31    18    19 1   
    32    18    34 1   
    33    18    35 1   
    34    19    20 1   
    35    19    38 1   
    36    20    21 2   
    37    20    36 1   
    38    21    37 1   
@<TRIPOS>SUBSTRUCTURE
     1 8YF         1 TEMP              0 ****  ****    0 ROOT
