@<TRIPOS>MOLECULE
molecule
   38    38     1     0     0
SMALL
bcc


@<TRIPOS>ATOM
      1 C62          0.0000     0.0000     0.0000 c3         1 8YF      -0.133100
      2 C61          1.5310     0.0000     0.0000 c3         1 8YF       0.168100
      3 O62          2.0060     1.1670    -0.6730 oh         1 8YF      -0.562800
      4 C6           2.0400     0.0000     1.4430 c3         1 8YF      -0.184700
      5 C7           3.5470     0.0010     1.4430 c          1 8YF       0.910600
      6 O71          4.1510     0.0010     0.3970 o          1 8YF      -0.840800
      7 O72          4.2190     0.0010     2.6060 o          1 8YF      -0.840800
      8 C5           1.5300     1.2490     2.1640 c3         1 8YF       0.256500
      9 C1           2.0640     1.2910     3.6070 c3         1 8YF      -0.029200
     10 N4           2.0660     2.4620     1.5310 nu         1 8YF      -0.776000
     11 C3           2.8390     3.1680     2.4660 ce         1 8YF       0.199800
     12 C31          3.5010     4.3840     2.1780 c          1 8YF       0.877800
     13 O31          4.0740     4.9910     3.0650 o          1 8YF      -0.844800
     14 O32          3.4960     4.8740     0.9190 o          1 8YF      -0.844800
     15 C2           2.8830     2.5610     3.6720 c2         1 8YF      -0.175600
     16 S21          3.7520     3.1500     5.0860 ss         1 8YF      -0.189700
     17 C22          2.3590     3.4880     6.1920 c3         1 8YF      -0.066300
     18 C23          2.8740     4.1420     7.4760 c3         1 8YF       0.250800
     19 N24          1.7470     4.4160     8.3710 nu         1 8YF      -0.873200
     20 C25          1.9660     5.0030     9.5890 c2         1 8YF       0.647100
     21 N26          3.1680     5.3180     9.9480 n2         1 8YF      -0.925100
     22 H1          -0.3610     1.0200     0.0490 hc         1 8YF       0.019700
     23 H2          -0.3610    -0.4670    -0.9080 hc         1 8YF       0.019700
     24 H3          -0.3610    -0.5530     0.8590 hc         1 8YF       0.019700
     25 H4           1.8920    -0.8840    -0.5110 h1         1 8YF       0.021700
     26 H5           2.0570     0.9970    -1.5990 ho         1 8YF       0.370000
     27 H6           1.6790    -0.8850     1.9540 hc         1 8YF       0.030700
     28 H8           0.4470     1.2750     2.1650 h1         1 8YF      -0.011300
     29 H9           1.2420     1.3370     4.3110 hc         1 8YF       0.043700
     30 H10          2.6900     0.4290     3.8020 hc         1 8YF       0.043700
     31 H11          1.9040     2.7410     0.5840 hn         1 8YF       0.472800
     32 H13          1.8580     2.5590     6.4360 h1         1 8YF       0.040200
     33 H14          1.6620     4.1560     5.7010 h1         1 8YF       0.040200
     34 H15          3.3750     5.0720     7.2320 h1         1 8YF       0.057700
     35 H16          3.5720     3.4750     7.9670 h1         1 8YF       0.057700
     36 H17          1.1330     5.2040    10.2510 h5         1 8YF      -0.059200
     37 H18          3.3280     5.7470    10.8380 hn         1 8YF       0.376400
     38 H20          0.8170     4.1750     8.0910 hn         1 8YF       0.429800
@<TRIPOS>BOND
     1    21    20 2
     2    20    19 1
     3    19    18 1
     4    18    17 1
     5    17    16 1
     6    13    12 1
     7    14    12 1
     8    16    15 1
     9    12    11 1
    10    11    15 2
    11    11    10 1
    12    15     9 1
    13    10     8 1
    14     9     8 1
    15     8     4 1
    16     6     5 1
    17     5     4 1
    18     5     7 1
    19     4     2 1
    20     2     1 1
    21     2     3 1
    22     1    22 1
    23     1    23 1
    24     1    24 1
    25     2    25 1
    26     3    26 1
    27     4    27 1
    28     8    28 1
    29     9    29 1
    30     9    30 1
    31    10    31 1
    32    17    32 1
    33    17    33 1
    34    18    34 1
    35    18    35 1
    36    20    36 1
    37    21    37 1
    38    19    38 1
@<TRIPOS>SUBSTRUCTURE
     1 8YF         1 TEMP              0 ****  ****    0 ROOT
