@<TRIPOS>MOLECULE
molecule
   36    36     1     0     0
SMALL
bcc


@<TRIPOS>ATOM
      1 CAE          0.0000     0.0000     0.0000 c3         1 8YH       0.115500
      2 CAH          1.5320     0.0000     0.0000 c3         1 8YH      -0.096400
      3 CAI          2.0370     0.0000     1.4450 c3         1 8YH      -0.072700
      4 CAK          3.5670    -0.0350     1.4480 c3         1 8YH      -0.088100
      5 CAG          1.5540     1.2660     2.1560 c3         1 8YH      -0.096400
      6 CAD          0.0230     1.2810     2.1800 c3         1 8YH       0.115500
      7 NAB         -0.4730     1.1350     0.8050 n          1 8YH      -0.509800
      8 CAA         -1.3460     2.0240     0.2920 c          1 8YH       0.788100
      9 OAC         -1.8010     2.9060     0.9960 o          1 8YH      -0.661100
     10 NAF         -1.7140     1.9380    -1.0020 ns         1 8YH      -0.609900
     11 CAJ         -2.5750     2.9680    -1.5890 c3         1 8YH       0.128000
     12 CAL         -2.8410     2.6340    -3.0580 c3         1 8YH      -0.102400
     13 CAM         -3.7390     3.7100    -3.6710 c3         1 8YH      -0.080400
     14 CAN         -4.0050     3.3760    -5.1410 c3         1 8YH      -0.092100
     15 H1          -0.3620    -0.9260     0.4310 h1         1 8YH       0.051950
     16 H2           1.8930     0.8860    -0.5080 hc         1 8YH       0.050950
     17 H3           3.9090    -0.9310     0.9450 hc         1 8YH       0.035033
     18 H4           3.9500     0.8370     0.9320 hc         1 8YH       0.035033
     19 H5           3.9260    -0.0350     2.4710 hc         1 8YH       0.035033
     20 H6           1.9310     1.2750     3.1710 hc         1 8YH       0.050950
     21 H7          -0.3240     2.2200     2.5930 h1         1 8YH       0.051950
     22 H8          -1.4310     1.1510    -1.5520 hn         1 8YH       0.310500
     23 H9          -2.0830     3.9310    -1.5210 h1         1 8YH       0.052200
     24 H10         -3.5140     3.0040    -1.0510 h1         1 8YH       0.052200
     25 H11         -1.9010     2.5990    -3.5970 hc         1 8YH       0.043700
     26 H12         -3.3330     1.6710    -3.1260 hc         1 8YH       0.043700
     27 H13         -4.6790     3.7460    -3.1330 hc         1 8YH       0.045200
     28 H14         -3.2480     4.6730    -3.6030 hc         1 8YH       0.045200
     29 H15         -4.4970     2.4130    -5.2090 hc         1 8YH       0.034367
     30 H16         -4.6420     4.1370    -5.5760 hc         1 8YH       0.034367
     31 H17         -3.0660     3.3400    -5.6790 hc         1 8YH       0.034367
     32 H18         -0.3620     0.1000    -1.0160 h1         1 8YH       0.051950
     33 H19          1.8930    -0.8860    -0.5080 hc         1 8YH       0.050950
     34 H20          1.6500    -0.8710     1.9600 hc         1 8YH       0.050700
     35 H21          1.9150     2.1380     1.6230 hc         1 8YH       0.050950
     36 H22         -0.3380     0.4570     2.7850 h1         1 8YH       0.051950
@<TRIPOS>BOND
     1    14    13 1
     2     9     8 2
     3    11    12 1
     4    11    10 1
     5    13    12 1
     6     8    10 1
     7     8     7 1
     8     6     5 1
     9     6     7 1
    10     5     3 1
    11     7     1 1
    12     3     4 1
    13     3     2 1
    14     1     2 1
    15     1    15 1
    16     2    16 1
    17     4    17 1
    18     4    18 1
    19     4    19 1
    20     5    20 1
    21     6    21 1
    22    10    22 1
    23    11    23 1
    24    11    24 1
    25    12    25 1
    26    12    26 1
    27    13    27 1
    28    13    28 1
    29    14    29 1
    30    14    30 1
    31    14    31 1
    32     1    32 1
    33     2    33 1
    34     3    34 1
    35     5    35 1
    36     6    36 1
@<TRIPOS>SUBSTRUCTURE
     1 8YH         1 TEMP              0 ****  ****    0 ROOT
