@<TRIPOS>MOLECULE
molecule
   30    31     1     0     0
SMALL
bcc


@<TRIPOS>ATOM
      1 CAA          0.0000     0.0000     0.0000 ca         1 8YJ      -0.095600
      2 CAB          1.3980     0.0000     0.0000 ca         1 8YJ      -0.076000
      3 CAC          2.0860     0.0000     1.1940 ca         1 8YJ      -0.175000
      4 CAD          1.3980     0.0010     2.3980 ca         1 8YJ      -0.135000
      5 CAE          0.0190     0.0010     2.4160 ca         1 8YJ      -0.183000
      6 CAF         -0.6930     0.0070     1.2220 ca         1 8YJ       0.024900
      7 CAH         -2.7500    -0.0030     3.0280 c3         1 8YJ      -0.208300
      8 CAI         -4.2330    -0.0050     3.2920 c          1 8YJ       0.589700
      9 CAJ         -4.7340    -0.0110     4.6750 ca         1 8YJ      -0.159600
     10 CAK         -6.1100    -0.0130     4.9240 ca         1 8YJ      -0.074500
     11 CAL         -6.5720    -0.0200     6.2220 ca         1 8YJ      -0.141000
     12 CAM         -5.6760    -0.0250     7.2800 ca         1 8YJ       0.044400
     13 CAN         -4.3120    -0.0240     7.0400 ca         1 8YJ      -0.141000
     14 CAO         -3.8350    -0.0230     5.7470 ca         1 8YJ      -0.074500
     15 CAP         -0.7420    -0.0010    -1.2720 c          1 8YJ       0.879200
     16 OAQ         -0.0720    -0.0020    -2.4420 o          1 8YJ      -0.813300
     17 OAR         -1.9570    -0.0010    -1.2680 o          1 8YJ      -0.813300
     18 OAS         -5.0150     0.0010     2.3640 o          1 8YJ      -0.498100
     19 SAG         -2.4550     0.0070     1.2420 ss         1 8YJ      -0.028000
     20 ClA         -6.2670    -0.0340     8.9130 cl         1 8YJ      -0.124400
     21 H1           1.9410    -0.0030    -0.9380 ha         1 8YJ       0.157000
     22 H2           3.1690     0.0000     1.1920 ha         1 8YJ       0.106000
     23 H3           1.9480    -0.0010     3.3320 ha         1 8YJ       0.101000
     24 H4          -0.5100     0.0040     3.3610 ha         1 8YJ       0.106000
     25 H5          -2.3040    -0.8890     3.4620 h1         1 8YJ       0.071700
     26 H6          -2.3050     0.8800     3.4720 h1         1 8YJ       0.071700
     27 H7          -6.8110    -0.0090     4.0980 ha         1 8YJ       0.154500
     28 H8          -7.6380    -0.0210     6.4160 ha         1 8YJ       0.141500
     29 H9          -3.6180    -0.0300     7.8720 ha         1 8YJ       0.141500
     30 H10         -2.7680    -0.0210     5.5620 ha         1 8YJ       0.154500
@<TRIPOS>BOND
     1    20    12 1
     2    12    11 ar
     3    12    13 ar
     4    11    10 ar
     5    13    14 ar
     6    10     9 ar
     7    14     9 ar
     8     9     8 1
     9     8    18 2
    10     8     7 1
    11    19     6 1
    12    19     7 1
    13     5     4 ar
    14     5     6 ar
    15     4     3 ar
    16     6     1 ar
    17     3     2 ar
    18     1     2 ar
    19     1    15 1
    20    17    15 1
    21    15    16 1
    22     2    21 1
    23     3    22 1
    24     4    23 1
    25     5    24 1
    26     7    25 1
    27     7    26 1
    28    10    27 1
    29    11    28 1
    30    13    29 1
    31    14    30 1
@<TRIPOS>SUBSTRUCTURE
     1 8YJ         1 TEMP              0 ****  ****    0 ROOT
