@<TRIPOS>MOLECULE
8YL
   52    53     1     0     0
SMALL
bcc


@<TRIPOS>ATOM
      1 CAA          0.0000     0.0000     0.0000 c3         1 8YL      -0.052100
      2 CAU          1.5300     0.0000     0.0000 c3         1 8YL       0.204100
      3 OAJ          2.0070     1.1670    -0.6740 oh         1 8YL      -0.566800
      4 CBA          2.0400     0.0000     1.4430 c3         1 8YL      -0.193700
      5 CAQ          3.5400    -0.1350     1.4460 c          1 8YL       0.978600
      6 OAI          4.1090    -1.3170     1.1540 o          1 8YL      -0.883300
      7 OAF          4.2330     0.8190     1.7100 o          1 8YL      -0.883300
      8 CAZ          1.6450     1.3120     2.1230 c3         1 8YL       0.145500
      9 CAV          1.9950     1.2670     3.6210 c3         1 8YL       0.063500
     10 CAB          2.6330    -0.0770     3.9800 c3         1 8YL      -0.056100
     11 NAN          2.4400     2.4260     1.5870 nu         1 8YL      -0.332000
     12 CAS          3.1910     2.9990     2.6260 ce         1 8YL       0.128800
     13 CAP          4.0650     4.0970     2.4470 c          1 8YL       0.967800
     14 OAH          4.7570     4.4820     3.3720 o          1 8YL      -0.890800
     15 OAE          4.1330     4.7180     1.2500 o          1 8YL      -0.890800
     16 CAT          2.9880     2.3900     3.8130 c2         1 8YL      -0.215600
     17 SAO          3.7550     2.8320     5.3370 ss         1 8YL      -0.304700
     18 CG           2.3060     3.3880     6.2690 c3         1 8YL       0.014400
     19 CB           2.6560     3.6050     7.7640 c3         1 8YL      -0.009400
     20 CD           1.8800     4.8130     5.8360 c3         1 8YL       0.146800
     21 N            1.1610     5.3630     7.0040 n7         1 8YL      -0.620200
     22 CA           1.6210     4.6570     8.2150 c3         1 8YL       0.044500
     23 C            2.2630     5.6340     9.1650 c          1 8YL       0.580100
     24 O            2.6410     6.7130     8.7620 o          1 8YL      -0.642100
     25 NAY          2.4170     5.3090    10.4640 n          1 8YL      -0.177800
     26 CAD          3.0420     6.2580    11.3890 c3         1 8YL       0.089800
     27 CAC          1.9600     4.0050    10.9520 c3         1 8YL       0.089800
     28 H1          -0.3610     0.9110    -0.4620 hc         1 8YL      -0.003300
     29 H2          -0.3610    -0.8550    -0.5580 hc         1 8YL      -0.003300
     30 H3          -0.3610    -0.0560     1.0200 hc         1 8YL      -0.003300
     31 H4           1.8910    -0.8850    -0.5110 h1         1 8YL       0.009700
     32 H5           2.1320     0.9730    -1.5880 ho         1 8YL       0.363000
     33 H6           1.6010    -0.8320     1.9810 hc         1 8YL       0.041700
     34 H8           0.5880     1.5090     1.9910 h1         1 8YL      -0.015300
     35 H9           1.1090     1.4430     4.2190 hc         1 8YL      -0.021300
     36 H10          3.6650    -0.0860     3.6500 hc         1 8YL       0.020033
     37 H11          2.0900    -0.8770     3.4900 hc         1 8YL       0.020033
     38 H12          2.5960    -0.2190     5.0530 hc         1 8YL       0.020033
     39 H13          2.4490     2.7250     0.6320 hn         1 8YL       0.325800
     40 H15          1.4810     2.6930     6.1660 h1         1 8YL       0.041700
     41 H16          2.5330     2.6850     8.3230 hc         1 8YL       0.023200
     42 H17          3.6630     3.9930     7.8680 hc         1 8YL       0.023200
     43 H18          1.2210     4.7630     4.9780 h1         1 8YL       0.044700
     44 H19          2.7540     5.4140     5.6150 h1         1 8YL       0.044700
     45 H20          1.3620     6.3400     7.0900 hn         1 8YL       0.276800
     46 H22          0.7820     4.1660     8.6930 h1         1 8YL       0.027700
     47 H23          3.1010     5.8160    12.3760 h1         1 8YL       0.005033
     48 H24          4.0400     6.4980    11.0410 h1         1 8YL       0.005033
     49 H25          2.4480     7.1630    11.4330 h1         1 8YL       0.005033
     50 H26          1.0160     3.7550    10.4840 h1         1 8YL       0.005033
     51 H27          2.6960     3.2490    10.7050 h1         1 8YL       0.005033
     52 H28          1.8310     4.0460    12.0260 h1         1 8YL       0.005033
@<TRIPOS>BOND
     1     1     2 1   
     2     1    28 1   
     3     1    29 1   
     4     1    30 1   
     5     2     3 1   
     6     2     4 1   
     7     2    31 1   
     8     3    32 1   
     9     4     5 1   
    10     4     8 1   
    11     4    33 1   
    12     5     6 1   
    13     5     7 1   
    14     8     9 1   
    15     8    11 1   
    16     8    34 1   
    17     9    10 1   
    18     9    16 1   
    19     9    35 1   
    20    10    36 1   
    21    10    37 1   
    22    10    38 1   
    23    11    12 1   
    24    11    39 1   
    25    12    13 1   
    26    12    16 2   
    27    13    14 1   
    28    13    15 1   
    29    16    17 1   
    30    17    18 1   
    31    18    19 1   
    32    18    20 1   
    33    18    40 1   
    34    19    22 1   
    35    19    41 1   
    36    19    42 1   
    37    20    21 1   
    38    20    43 1   
    39    20    44 1   
    40    21    22 1   
    41    21    45 1   
    42    22    23 1   
    43    22    46 1   
    44    23    24 2   
    45    23    25 1   
    46    25    26 1   
    47    25    27 1   
    48    26    47 1   
    49    26    48 1   
    50    26    49 1   
    51    27    50 1   
    52    27    51 1   
    53    27    52 1   
@<TRIPOS>SUBSTRUCTURE
     1 8YL         1 TEMP              0 ****  ****    0 ROOT
