@<TRIPOS>MOLECULE
molecule
   52    53     1     0     0
SMALL
bcc


@<TRIPOS>ATOM
      1 CAA          0.0000     0.0000     0.0000 c3         1 8YL      -0.129100
      2 CAU          1.5300     0.0000     0.0000 c3         1 8YL       0.162100
      3 OAJ          2.0070     1.1670    -0.6740 oh         1 8YL      -0.587800
      4 CBA          2.0400     0.0000     1.4430 c3         1 8YL      -0.188700
      5 CAQ          3.5400    -0.1350     1.4460 c          1 8YL       0.893600
      6 OAI          4.1090    -1.3170     1.1540 o          1 8YL      -0.835800
      7 OAF          4.2330     0.8190     1.7100 o          1 8YL      -0.835800
      8 CAZ          1.6450     1.3120     2.1230 c3         1 8YL       0.254500
      9 CAV          1.9950     1.2670     3.6210 c3         1 8YL       0.006500
     10 CAB          2.6330    -0.0770     3.9800 c3         1 8YL      -0.094100
     11 NAN          2.4400     2.4260     1.5870 nu         1 8YL      -0.746000
     12 CAS          3.1910     2.9990     2.6260 ce         1 8YL       0.257800
     13 CAP          4.0650     4.0970     2.4470 c          1 8YL       0.880800
     14 OAH          4.7570     4.4820     3.3720 o          1 8YL      -0.843300
     15 OAE          4.1330     4.7180     1.2500 o          1 8YL      -0.843300
     16 CAT          2.9880     2.3900     3.8130 c2         1 8YL      -0.227600
     17 SAO          3.7550     2.8320     5.3370 ss         1 8YL      -0.196700
     18 CG           2.3060     3.3880     6.2690 c3         1 8YL      -0.035600
     19 CB           2.6560     3.6050     7.7640 c3         1 8YL      -0.072400
     20 CD           1.8800     4.8130     5.8360 c3         1 8YL       0.153800
     21 N            1.1610     5.3630     7.0040 n7         1 8YL      -0.817200
     22 CA           1.6210     4.6570     8.2150 c3         1 8YL       0.085500
     23 C            2.2630     5.6340     9.1650 c          1 8YL       0.649100
     24 O            2.6410     6.7130     8.7620 o          1 8YL      -0.611100
     25 NAY          2.4170     5.3090    10.4640 n          1 8YL      -0.505800
     26 CAD          3.0420     6.2580    11.3890 c3         1 8YL       0.102300
     27 CAC          1.9600     4.0050    10.9520 c3         1 8YL       0.102300
     28 H1          -0.3610     0.9110    -0.4620 hc         1 8YL       0.022033
     29 H2          -0.3610    -0.8550    -0.5580 hc         1 8YL       0.022033
     30 H3          -0.3610    -0.0560     1.0200 hc         1 8YL       0.022033
     31 H4           1.8910    -0.8850    -0.5110 h1         1 8YL       0.037700
     32 H5           2.1320     0.9730    -1.5880 ho         1 8YL       0.374000
     33 H6           1.6010    -0.8320     1.9810 hc         1 8YL       0.047700
     34 H8           0.5880     1.5090     1.9910 h1         1 8YL      -0.001300
     35 H9           1.1090     1.4430     4.2190 hc         1 8YL      -0.002300
     36 H10          3.6650    -0.0860     3.6500 hc         1 8YL       0.035700
     37 H11          2.0900    -0.8770     3.4900 hc         1 8YL       0.035700
     38 H12          2.5960    -0.2190     5.0530 hc         1 8YL       0.035700
     39 H13          2.4490     2.7250     0.6320 hn         1 8YL       0.474800
     40 H15          1.4810     2.6930     6.1660 h1         1 8YL       0.059700
     41 H16          2.5330     2.6850     8.3230 hc         1 8YL       0.048200
     42 H17          3.6630     3.9930     7.8680 hc         1 8YL       0.048200
     43 H18          1.2210     4.7630     4.9780 h1         1 8YL       0.071700
     44 H19          2.7540     5.4140     5.6150 h1         1 8YL       0.071700
     45 H20          1.3620     6.3400     7.0900 hn         1 8YL       0.361800
     46 H22          0.7820     4.1660     8.6930 h1         1 8YL       0.054700
     47 H23          3.1010     5.8160    12.3760 h1         1 8YL       0.033867
     48 H24          4.0400     6.4980    11.0410 h1         1 8YL       0.033867
     49 H25          2.4480     7.1630    11.4330 h1         1 8YL       0.033867
     50 H26          1.0160     3.7550    10.4840 h1         1 8YL       0.033867
     51 H27          2.6960     3.2490    10.7050 h1         1 8YL       0.033867
     52 H28          1.8310     4.0460    12.0260 h1         1 8YL       0.033867
@<TRIPOS>BOND
     1    27    25 1
     2    26    25 1
     3    25    23 1
     4    23    22 1
     5    23    24 2
     6    22    21 1
     7    22    19 1
     8    21    20 1
     9    20    18 1
    10    19    18 1
    11    18    17 1
    12    14    13 1
    13    17    16 1
    14    15    13 1
    15    13    12 1
    16    16    12 2
    17    16     9 1
    18    12    11 1
    19     9    10 1
    20     9     8 1
    21    11     8 1
    22     8     4 1
    23     7     5 1
    24     5     6 1
    25     5     4 1
    26     4     2 1
    27     2     3 1
    28     2     1 1
    29     1    28 1
    30     1    29 1
    31     1    30 1
    32     2    31 1
    33     3    32 1
    34     4    33 1
    35     8    34 1
    36     9    35 1
    37    10    36 1
    38    10    37 1
    39    10    38 1
    40    11    39 1
    41    18    40 1
    42    19    41 1
    43    19    42 1
    44    20    43 1
    45    20    44 1
    46    21    45 1
    47    22    46 1
    48    26    47 1
    49    26    48 1
    50    26    49 1
    51    27    50 1
    52    27    51 1
    53    27    52 1
@<TRIPOS>SUBSTRUCTURE
     1 8YL         1 TEMP              0 ****  ****    0 ROOT
