@<TRIPOS>MOLECULE
molecule
   30    31     1     0     0
SMALL
bcc


@<TRIPOS>ATOM
      1 C5           0.0000     0.0000     0.0000 ca         1 8YM      -0.087000
      2 C4           1.3870     0.0000     0.0000 ca         1 8YM      -0.188000
      3 C2           1.3910    -0.0010     2.4040 ca         1 8YM      -0.195600
      4 C6          -0.7000     0.0050     1.1880 ca         1 8YM      -0.146000
      5 C            3.6320    -0.0020     3.6700 c3         1 8YM      -0.188100
      6 O            1.5200    -0.0020     4.7230 o          1 8YM      -0.521100
      7 C1           2.1250    -0.0010     3.6730 c          1 8YM       0.573700
      8 C10         -4.7340    -0.7970     2.9690 ca         1 8YM      -0.171000
      9 C11         -5.2220     0.4400     2.5740 ca         1 8YM      -0.139000
     10 C12         -4.4040     1.5480     2.5860 ca         1 8YM      -0.106000
     11 C13         -3.0740     1.4290     2.9980 ca         1 8YM      -0.057600
     12 C14         -2.1940     2.6090     3.0140 c          1 8YM       0.867200
     13 C3           2.0840     0.0000     1.1860 ca         1 8YM      -0.077000
     14 C7          -0.0170     0.0050     2.3990 ca         1 8YM       0.112900
     15 C8          -2.5820     0.1740     3.3980 ca         1 8YM      -0.062100
     16 C9          -3.4250    -0.9310     3.3830 ca         1 8YM      -0.106000
     17 O1          -2.6710     3.8100     2.6310 o          1 8YM      -0.816300
     18 O2          -1.0380     2.5000     3.3730 o          1 8YM      -0.816300
     19 S           -0.9080     0.0050     3.9200 ss         1 8YM      -0.001800
     20 H1          -0.5380    -0.0000    -0.9400 ha         1 8YM       0.116000
     21 H2           1.9250    -0.0020    -0.9400 ha         1 8YM       0.110000
     22 H3          -1.7830     0.0070     1.1780 ha         1 8YM       0.149000
     23 H4           3.9930     0.8830     3.1600 hc         1 8YM       0.049700
     24 H5           3.9920    -0.8860     3.1590 hc         1 8YM       0.049700
     25 H6           3.9950    -0.0030     4.6910 hc         1 8YM       0.049700
     26 H7          -5.3860    -1.6610     2.9570 ha         1 8YM       0.105000
     27 H8          -6.2520     0.5340     2.2520 ha         1 8YM       0.107000
     28 H9          -4.7910     2.5110     2.2760 ha         1 8YM       0.158000
     29 H10          3.1670    -0.0000     1.1790 ha         1 8YM       0.113000
     30 H11         -3.0510    -1.9000     3.6910 ha         1 8YM       0.118000
@<TRIPOS>BOND
     1     5     7 1
     2     7     6 2
     3     7     3 1
     4     3    13 ar
     5     3    14 ar
     6    13     2 ar
     7    19    14 1
     8    19    15 1
     9    14     4 ar
    10     2     1 ar
    11     4     1 ar
    12    16    15 ar
    13    16     8 ar
    14    15    11 ar
    15    18    12 1
    16     8     9 ar
    17    11    12 1
    18    11    10 ar
    19    12    17 1
    20     9    10 ar
    21     1    20 1
    22     2    21 1
    23     4    22 1
    24     5    23 1
    25     5    24 1
    26     5    25 1
    27     8    26 1
    28     9    27 1
    29    10    28 1
    30    13    29 1
    31    16    30 1
@<TRIPOS>SUBSTRUCTURE
     1 8YM         1 TEMP              0 ****  ****    0 ROOT
