@<TRIPOS>MOLECULE
molecule
   34    35     1     0     0
SMALL
bcc


@<TRIPOS>ATOM
      1 P            0.0000     0.0000     0.0000 p3         1 8YN       0.246300
      2 C1           1.7470     6.0170    -2.0870 cc         1 8YN      -0.124400
      3 C2           2.8580     5.2570    -2.4930 c          1 8YN       0.687700
      4 C4           4.2120     7.1230    -2.0650 cc         1 8YN       0.454800
      5 C6           1.9410     7.3070    -1.6880 cd         1 8YN       0.116600
      6 O1P          1.6100     0.0000     0.0000 oh         1 8YN      -0.505100
      7 O2P         -0.3350     0.0000     1.5740 oh         1 8YN      -0.505100
      8 O5'         -0.3350     1.5200    -0.4140 os         1 8YN      -0.347900
      9 C5'         -0.4920     1.9410    -1.7700 c3         1 8YN       0.199400
     10 C4'         -0.8020     3.4390    -1.8060 c3         1 8YN       0.129100
     11 O4'          0.3360     4.1860    -1.3470 os         1 8YN      -0.373600
     12 C1'          0.3630     5.4180    -2.0990 c3         1 8YN       0.180300
     13 O2           2.7210     4.1000    -2.8560 o          1 8YN      -0.535500
     14 N3           4.0790     5.8320    -2.4740 ns         1 8YN      -0.450400
     15 N4           5.4530     7.6980    -2.0480 nz         1 8YN      -0.733600
     16 N5           3.1650     7.8290    -1.6860 nd         1 8YN      -0.572300
     17 C2'         -0.0290     4.9770    -3.5320 c3         1 8YN      -0.128400
     18 C3'         -1.0890     3.8790    -3.2550 c3         1 8YN       0.121100
     19 O3'         -2.4080     4.4190    -3.3660 oh         1 8YN      -0.593800
     20 H6           1.0960     7.9070    -1.3720 h4         1 8YN       0.215000
     21 H1           1.9240    -0.8670    -0.1950 ho         1 8YN       0.431000
     22 H2          -0.9240    -0.7090     1.7700 ho         1 8YN       0.431000
     23 H5'2        -1.3070     1.3920    -2.2260 h1         1 8YN       0.037200
     24 H5'1         0.4230     1.7480    -2.3170 h1         1 8YN       0.037200
     25 H4'         -1.6590     3.6570    -1.1810 h1         1 8YN       0.091700
     26 H1'         -0.3650     6.1170    -1.7050 h1         1 8YN       0.080700
     27 H3           4.8840     5.3100    -2.7580 hn         1 8YN       0.347500
     28 HH4          6.0520     7.1830    -1.4340 hn         1 8YN       0.480133
     29 H7           5.8380     7.6910    -2.9720 hn         1 8YN       0.480133
     30 H2'1         0.8260     4.5630    -4.0540 hc         1 8YN       0.074200
     31 H2'2        -0.4650     5.8020    -4.0820 hc         1 8YN       0.074200
     32 H3'         -0.9550     3.0460    -3.9350 h1         1 8YN       0.057700
     33 H4          -2.8310     4.0610    -4.1290 ho         1 8YN       0.417000
     34 H43          5.3770     8.6460    -1.7360 hn         1 8YN       0.480133
@<TRIPOS>BOND
     1    13     3 2
     2     3    14 1
     3     3     2 1
     4    14     4 1
     5    19    18 1
     6    12     2 1
     7    12    11 1
     8    12    17 1
     9     2     5 2
    10     4    15 1
    11     4    16 2
    12    11    10 1
    13    17    18 1
    14    18    10 1
    15    10     9 1
    16     5    16 1
    17     6     1 1
    18     1     8 1
    19     1     7 1
    20     9     8 1
    21     5    20 1
    22     6    21 1
    23     7    22 1
    24     9    23 1
    25     9    24 1
    26    10    25 1
    27    12    26 1
    28    14    27 1
    29    15    28 1
    30    15    29 1
    31    17    30 1
    32    17    31 1
    33    18    32 1
    34    19    33 1
    35    34    15 1
@<TRIPOS>SUBSTRUCTURE
     1 8YN         1 TEMP              0 ****  ****    0 ROOT
