@<TRIPOS>MOLECULE
8YN
   34    35     1     0     0
SMALL
bcc


@<TRIPOS>ATOM
      1 P            0.0000     0.0000     0.0000 p3         1 8YN       0.473300
      2 C1           1.7470     6.0170    -2.0870 cc         1 8YN      -0.092400
      3 C2           2.8580     5.2570    -2.4930 c          1 8YN       0.577700
      4 C4           4.2120     7.1230    -2.0650 cc         1 8YN      -0.011200
      5 C6           1.9410     7.3070    -1.6880 cd         1 8YN       0.077600
      6 O1P          1.6100     0.0000     0.0000 oh         1 8YN      -0.574600
      7 O2P         -0.3350     0.0000     1.5740 oh         1 8YN      -0.574600
      8 O5'         -0.3350     1.5200    -0.4140 os         1 8YN      -0.413900
      9 C5'         -0.4920     1.9410    -1.7700 c3         1 8YN       0.303400
     10 C4'         -0.8020     3.4390    -1.8060 c3         1 8YN       0.148100
     11 O4'          0.3360     4.1860    -1.3470 os         1 8YN      -0.363600
     12 C1'          0.3630     5.4180    -2.0990 c3         1 8YN       0.224300
     13 O2           2.7210     4.1000    -2.8560 o          1 8YN      -0.568500
     14 N3           4.0790     5.8320    -2.4740 ns         1 8YN       0.034600
     15 N4           5.4530     7.6980    -2.0480 nz         1 8YN       0.218400
     16 N5           3.1650     7.8290    -1.6860 nd         1 8YN      -0.404300
     17 C2'         -0.0290     4.9770    -3.5320 c3         1 8YN      -0.086400
     18 C3'         -1.0890     3.8790    -3.2550 c3         1 8YN       0.166100
     19 O3'         -2.4080     4.4190    -3.3660 oh         1 8YN      -0.576800
     20 H6           1.0960     7.9070    -1.3720 h4         1 8YN       0.165000
     21 H1           1.9240    -0.8670    -0.1950 ho         1 8YN       0.427500
     22 H2          -0.9240    -0.7090     1.7700 ho         1 8YN       0.427500
     23 H5'2        -1.3070     1.3920    -2.2260 h1         1 8YN      -0.010800
     24 H5'1         0.4230     1.7480    -2.3170 h1         1 8YN      -0.010800
     25 H4'         -1.6590     3.6570    -1.1810 h1         1 8YN       0.051700
     26 H1'         -0.3650     6.1170    -1.7050 h1         1 8YN       0.041700
     27 H3           4.8840     5.3100    -2.7580 hn         1 8YN       0.188500
     28 HH4          6.0520     7.1830    -1.4340 hn         1 8YN       0.219467
     29 H7           5.8380     7.6910    -2.9720 hn         1 8YN       0.219467
     30 H2'1         0.8260     4.5630    -4.0540 hc         1 8YN       0.042200
     31 H2'2        -0.4650     5.8020    -4.0820 hc         1 8YN       0.042200
     32 H3'         -0.9550     3.0460    -3.9350 h1         1 8YN       0.019700
     33 H4          -2.8310     4.0610    -4.1290 ho         1 8YN       0.401000
     34 H43          5.3770     8.6460    -1.7360 hn         1 8YN       0.219467
@<TRIPOS>BOND
     1     1     6 1   
     2     1     7 1   
     3     1     8 1   
     4     2     3 1   
     5     2     5 2   
     6     2    12 1   
     7     3    13 2   
     8     3    14 1   
     9     4    14 1   
    10     4    15 1   
    11     4    16 2   
    12     5    16 1   
    13     5    20 1   
    14     6    21 1   
    15     7    22 1   
    16     8     9 1   
    17     9    10 1   
    18     9    23 1   
    19     9    24 1   
    20    10    11 1   
    21    10    18 1   
    22    10    25 1   
    23    11    12 1   
    24    12    17 1   
    25    12    26 1   
    26    14    27 1   
    27    15    28 1   
    28    15    29 1   
    29    15    34 1   
    30    17    18 1   
    31    17    30 1   
    32    17    31 1   
    33    18    19 1   
    34    18    32 1   
    35    19    33 1   
@<TRIPOS>SUBSTRUCTURE
     1 8YN         1 TEMP              0 ****  ****    0 ROOT
