@<TRIPOS>MOLECULE
molecule
   31    30     1     0     0
SMALL
bcc


@<TRIPOS>ATOM
      1 C1           0.0000     0.0000     0.0000 c3         1 8YP      -0.092100
      2 C2           1.5300     0.0000     0.0000 c3         1 8YP      -0.084400
      3 C3           2.0400     0.0000     1.4430 c3         1 8YP      -0.081400
      4 C4           3.5700     0.0000     1.4430 c3         1 8YP      -0.082400
      5 C5           4.0790     0.0000     2.8850 c3         1 8YP      -0.081400
      6 C6           5.6090    -0.0010     2.8860 c3         1 8YP      -0.082400
      7 C7           6.1190    -0.0010     4.3280 c3         1 8YP      -0.080400
      8 C8           7.6490    -0.0010     4.3290 c3         1 8YP      -0.075400
      9 H2          -0.3610     0.8850     0.5110 hc         1 8YP       0.032700
     10 H3          -0.3610     0.0000    -1.0210 hc         1 8YP       0.032700
     11 H1          -0.3610    -0.8850     0.5110 hc         1 8YP       0.032700
     12 H4           1.8920     0.8850    -0.5110 hc         1 8YP       0.039700
     13 H5           1.8920    -0.8850    -0.5110 hc         1 8YP       0.039700
     14 H7           1.6780     0.8850     1.9530 hc         1 8YP       0.041200
     15 H6           1.6780    -0.8850     1.9530 hc         1 8YP       0.041200
     16 H9           3.9310     0.8850     0.9320 hc         1 8YP       0.041200
     17 H8           3.9310    -0.8850     0.9320 hc         1 8YP       0.041200
     18 H11          3.7170    -0.8840     3.3960 hc         1 8YP       0.042200
     19 H10          3.7180     0.8850     3.3960 hc         1 8YP       0.042200
     20 H13          5.9700    -0.8860     2.3760 hc         1 8YP       0.041700
     21 H12          5.9710     0.8830     2.3750 hc         1 8YP       0.041700
     22 H15          5.7580     0.8830     4.8380 hc         1 8YP       0.043700
     23 H14          5.7580    -0.8850     4.8380 hc         1 8YP       0.043700
     24 H17          8.0100     0.8830     3.8180 hc         1 8YP       0.045200
     25 H18          8.0100    -0.8860     3.8180 hc         1 8YP       0.045200
     26 C9           8.1590    -0.0010     5.7710 c3         1 8YP      -0.204400
     27 C10          9.6650    -0.0020     5.7720 c          1 8YP       0.567900
     28 O1          10.2690     0.8550     6.3710 o          1 8YP      -0.522100
     29 H16          7.7990     0.8840     6.2820 hc         1 8YP       0.068200
     30 H19          7.7980    -0.8850     6.2820 hc         1 8YP       0.068200
     31 H20         10.2060    -0.7930     5.2670 h4         1 8YP      -0.006800
@<TRIPOS>BOND
     1     8     7 1
     2     7     6 1
     3     5     6 1
     4     5     4 1
     5     1     2 1
     6     3     4 1
     7     3     2 1
     8     1     9 1
     9     1    10 1
    10     1    11 1
    11     2    12 1
    12     2    13 1
    13     3    14 1
    14     3    15 1
    15     4    16 1
    16     4    17 1
    17     5    18 1
    18     5    19 1
    19     6    20 1
    20     6    21 1
    21     7    22 1
    22     7    23 1
    23     8    24 1
    24     8    25 1
    25     8    26 1
    26    26    27 1
    27    27    28 2
    28    26    29 1
    29    26    30 1
    30    27    31 1
@<TRIPOS>SUBSTRUCTURE
     1 8YP         1 TEMP              0 ****  ****    0 ROOT
