@<TRIPOS>MOLECULE
molecule
   81    86     1     0     0
SMALL
bcc


@<TRIPOS>ATOM
      1 C14          0.0000     0.0000     0.0000 cp         1 8YQ      -0.044000
      2 C13          2.1490     0.0020    -1.3040 c3         1 8YQ      -0.054800
      3 C15         -0.7430     0.0060    -1.2840 cp         1 8YQ      -0.031000
      4 C17         -2.4590    -0.9050    -2.6960 ca         1 8YQ       0.216700
      5 C16         -1.7700    -0.9150    -1.5000 ca         1 8YQ      -0.174300
      6 C8           6.2570     0.0020     1.6290 ca         1 8YQ      -0.315000
      7 C10          3.5880     0.0010     1.1990 c3         1 8YQ       0.190700
      8 C9           5.4110     0.0010     2.7270 ca         1 8YQ       0.164100
      9 N1           9.6300     2.2110     4.3810 n7         1 8YQ      -0.813200
     10 C12          1.3940     0.0000     0.0000 ca         1 8YQ      -0.065300
     11 C11          2.0810     0.0000     1.1980 ca         1 8YQ      -0.073300
     12 O3          -3.4630    -1.7930    -2.9270 os         1 8YQ      -0.400800
     13 C1          10.3970     1.2040    -3.0700 ca         1 8YQ      -0.185300
     14 C2          10.8880     0.0060    -3.5580 ca         1 8YQ      -0.109000
     15 C3          10.3970    -1.1900    -3.0730 ca         1 8YQ      -0.089000
     16 C4           9.4140    -1.1920    -2.1000 ca         1 8YQ      -0.065000
     17 C5           8.9230     0.0050    -1.6120 ca         1 8YQ      -0.040300
     18 C7           7.6300     0.0010     1.8150 ca         1 8YQ       0.155100
     19 O5          12.6230    -0.1580     1.7410 o          1 8YQ      -0.851800
     20 N           12.0750     2.9390    -2.7920 nz         1 8YQ      -0.814600
     21 O            8.4630     0.0030     0.7400 os         1 8YQ      -0.304900
     22 O1           4.0630     0.0000     2.5470 os         1 8YQ      -0.314900
     23 O2          -2.8200     0.0200    -4.8570 os         1 8YQ      -0.401800
     24 O4          11.1090     4.0390     4.7930 oh         1 8YQ      -0.640800
     25 C18         -2.1310     0.0240    -3.6840 ca         1 8YQ       0.215700
     26 C19         -3.9870    -0.6770    -4.9050 cc         1 8YQ       0.162300
     27 C20         -4.2970    -1.5530    -3.9730 cd         1 8YQ       0.167300
     28 C21         -1.1200     0.9450    -3.4630 ca         1 8YQ      -0.189300
     29 C22         -0.4240     0.9350    -2.2700 ca         1 8YQ      -0.119000
     30 C23         -0.6910    -0.0010     1.2100 ca         1 8YQ      -0.110000
     31 C24          0.0060    -0.0060     2.4000 ca         1 8YQ      -0.153000
     32 C25          1.3890    -0.0010     2.3950 ca         1 8YQ      -0.088000
     33 C26          5.9390    -0.0000     4.0100 ca         1 8YQ      -0.032600
     34 C27          7.3110    -0.0000     4.1940 ca         1 8YQ      -0.036000
     35 C28          8.1550     0.0000     3.0990 ca         1 8YQ      -0.100300
     36 C29          9.6490     0.0010     3.3020 c3         1 8YQ      -0.026100
     37 C30         10.1710     1.4370     3.2470 c3         1 8YQ       0.152500
     38 C31         10.7600     2.7110     5.1910 c3         1 8YQ       0.339300
     39 C32         11.9250     1.7350     4.8910 c3         1 8YQ      -0.041400
     40 C33         11.7080     1.4430     3.3830 c3         1 8YQ      -0.218700
     41 C34         12.2810     0.0990     3.0130 c          1 8YQ       0.906600
     42 C35          9.4150     1.2020    -2.0970 ca         1 8YQ      -0.152000
     43 H1           3.0550    -0.5820    -1.1980 hc         1 8YQ       0.045367
     44 H2           1.5300    -0.4320    -2.0810 hc         1 8YQ       0.045367
     45 H3           2.4040     1.0200    -1.5720 hc         1 8YQ       0.045367
     46 H4          -1.9670    -1.6880    -0.7680 ha         1 8YQ       0.156000
     47 H5           5.8460    -0.0640     0.6280 ha         1 8YQ       0.130000
     48 H6           3.9510    -0.8830     0.6880 h1         1 8YQ       0.041200
     49 H7           3.9500     0.8860     0.6900 h1         1 8YQ       0.041200
     50 H8           9.0990     2.9850     4.0330 hn         1 8YQ       0.344800
     51 H12          8.9960    -2.1300    -1.7530 ha         1 8YQ       0.162000
     52 H16         12.8470     3.1540    -3.3920 hn         1 8YQ       0.458133
     53 H17         12.3370     2.2070    -2.1620 hn         1 8YQ       0.458133
     54 H19         10.1500     3.2620    -3.5560 hx         1 8YQ       0.103700
     55 H20         11.2420     2.3780    -4.6310 hx         1 8YQ       0.103700
     56 H21         11.1300     4.5990     5.5510 ho         1 8YQ       0.395000
     57 H22         -4.6740    -0.5090    -5.7260 h4         1 8YQ       0.047100
     58 H23         -5.2350    -2.0920    -4.0400 h4         1 8YQ       0.048100
     59 H24         -0.8700     1.6680    -4.2300 ha         1 8YQ       0.147000
     60 H25          0.3440     1.6760    -2.0860 ha         1 8YQ       0.143000
     61 H26         -1.7730     0.0640     1.2160 ha         1 8YQ       0.134000
     62 H27         -0.5310    -0.0140     3.3410 ha         1 8YQ       0.134000
     63 H28          1.6330     0.0010     3.4500 ha         1 8YQ       0.158000
     64 H29          7.7220    -0.0010     5.1950 ha         1 8YQ       0.170000
     65 H30          9.8820    -0.4320     4.2680 hc         1 8YQ       0.090200
     66 H31         10.1190    -0.5850     2.5220 hc         1 8YQ       0.090200
     67 H32          9.8840     1.9040     2.3130 h1         1 8YQ       0.011700
     68 H33         10.5080     2.6820     6.2450 h2         1 8YQ       0.045700
     69 H34         11.8300     0.8290     5.4770 hc         1 8YQ       0.071200
     70 H35         12.8820     2.2140     5.0560 hc         1 8YQ       0.071200
     71 H36         11.4390     2.0590     2.5340 hc         1 8YQ       0.080700
     72 H37          9.8500     1.5670    -1.1740 ha         1 8YQ       0.184000
     73 Cl           4.8810    -0.0000     5.3860 cl         1 8YQ      -0.106400
     74 C6           7.8530     0.0040    -0.5520 c3         1 8YQ       0.176700
     75 C           10.9280     2.5090    -3.6030 c3         1 8YQ       0.166100
     76 O6          12.4300    -0.7480     3.8610 o          1 8YQ      -0.851800
     77 H13          7.2370     0.8880    -0.6600 h1         1 8YQ       0.048700
     78 H14          7.2370    -0.8810    -0.6620 h1         1 8YQ       0.048700
     79 H10         11.6310     0.0070    -4.3460 ha         1 8YQ       0.129000
     80 HN3         11.8220     3.7540    -2.2690 hn         1 8YQ       0.458133
     81 H11         10.7730    -2.1280    -3.4640 ha         1 8YQ       0.157000
@<TRIPOS>BOND
     1    23    26 1
     2    23    25 1
     3    26    27 2
     4    20    75 1
     5    28    25 ar
     6    28    29 ar
     7    25     4 ar
     8    75    13 1
     9    27    12 1
    10    29     3 ar
    11     4    12 1
    12     4     5 ar
    13    13    42 ar
    14    13    14 ar
    15    42    17 ar
    16     2    10 1
    17     3     5 ar
    18     3     1 1
    19    76    41 1
    20    39    38 1
    21    39    40 1
    22    14    15 ar
    23    41    40 1
    24    41    19 1
    25    24    38 1
    26    38     9 1
    27    10     1 ar
    28    10    11 ar
    29    17    74 1
    30    17    16 ar
    31    40    37 1
    32     1    30 ar
    33    74    21 1
    34    15    16 ar
    35    21    18 1
    36    11     7 1
    37    11    32 ar
    38     7    22 1
    39    30    31 ar
    40     9    37 1
    41     6    18 ar
    42     6     8 ar
    43    18    35 ar
    44    37    36 1
    45    22     8 1
    46     8    33 ar
    47    35    36 1
    48    35    34 ar
    49    32    31 ar
    50    33    34 ar
    51    33    73 1
    52     2    43 1
    53     2    44 1
    54     2    45 1
    55     5    46 1
    56     6    47 1
    57     7    48 1
    58     7    49 1
    59     9    50 1
    60    14    79 1
    61    15    81 1
    62    16    51 1
    63    74    77 1
    64    74    78 1
    65    20    52 1
    66    20    53 1
    67    75    54 1
    68    75    55 1
    69    24    56 1
    70    26    57 1
    71    27    58 1
    72    28    59 1
    73    29    60 1
    74    30    61 1
    75    31    62 1
    76    32    63 1
    77    34    64 1
    78    36    65 1
    79    36    66 1
    80    37    67 1
    81    38    68 1
    82    39    69 1
    83    39    70 1
    84    40    71 1
    85    42    72 1
    86    80    20 1
@<TRIPOS>SUBSTRUCTURE
     1 8YQ         1 TEMP              0 ****  ****    0 ROOT
