@<TRIPOS>MOLECULE
molecule
   24    24     1     0     0
SMALL
bcc


@<TRIPOS>ATOM
      1 C2           0.0000     0.0000     0.0000 c3         1 8YU       0.159100
      2 N1           1.4680     0.0000     0.0000 nz         1 8YU      -0.810600
      3 C4          -0.7440    -0.4360     2.3500 ca         1 8YU      -0.049800
      4 C5          -1.2050     0.0000     3.5770 ca         1 8YU      -0.119000
      5 C6          -1.4300     1.3460     3.7940 ca         1 8YU      -0.065000
      6 C7          -1.1940     2.2580     2.7810 ca         1 8YU      -0.119000
      7 C8          -0.7330     1.8210     1.5530 ca         1 8YU      -0.049800
      8 C81         -0.4780     2.8150     0.4490 c3         1 8YU      -0.060800
      9 C3          -0.5030     0.4750     1.3380 ca         1 8YU      -0.203300
     10 H26         -0.3610    -1.0040    -0.1860 hx         1 8YU       0.111700
     11 H27         -0.3610     0.6630    -0.7770 hx         1 8YU       0.111700
     12 H35          1.8020     0.6160    -0.7150 hn         1 8YU       0.454467
     13 H40         -0.7890    -2.4640     2.9960 hc         1 8YU       0.052200
     14 H41          0.5530    -2.0670     1.9140 hc         1 8YU       0.052200
     15 H42         -1.0850    -2.2370     1.2670 hc         1 8YU       0.052200
     16 H43         -1.3900    -0.7140     4.3710 ha         1 8YU       0.159000
     17 H44         -1.7920     1.6870     4.7560 ha         1 8YU       0.161000
     18 H45         -1.3710     3.3130     2.9510 ha         1 8YU       0.159000
     19 H46         -0.7640     3.8050     0.7810 hc         1 8YU       0.052200
     20 H47          0.5760     2.8090     0.1950 hc         1 8YU       0.052200
     21 H48         -1.0600     2.5430    -0.4230 hc         1 8YU       0.052200
     22 H2           1.8020     0.3110     0.8910 hn         1 8YU       0.454467
     23 H13          1.8020    -0.9270    -0.1760 hn         1 8YU       0.454467
     24 C41         -0.4990    -1.9040     2.1150 c3         1 8YU      -0.060800
@<TRIPOS>BOND
     1     2     1 1
     2     1     9 1
     3     8     7 1
     4     9     7 ar
     5     9     3 ar
     6     7     6 ar
     7    24     3 1
     8     3     4 ar
     9     6     5 ar
    10     4     5 ar
    11     1    10 1
    12     1    11 1
    13     2    12 1
    14    24    13 1
    15    24    14 1
    16    24    15 1
    17     4    16 1
    18     5    17 1
    19     6    18 1
    20     8    19 1
    21     8    20 1
    22     8    21 1
    23     2    22 1
    24    23     2 1
@<TRIPOS>SUBSTRUCTURE
     1 8YU         1 TEMP              0 ****  ****    0 ROOT
