@<TRIPOS>MOLECULE
molecule
   22    21     1     0     0
SMALL
bcc


@<TRIPOS>ATOM
      1 C2           1.4290     0.0000     0.0000 c3         1 8YV       0.169100
      2 C4           1.3380     1.1650     2.1870 c          1 8YV       0.441100
      3 O4           0.0000     0.0000     0.0000 oh         1 8YV      -0.594800
      4 O1           2.7300     2.7340     1.1370 o          1 8YV      -0.813800
      5 C5           1.8390     2.5460     1.9380 c          1 8YV       0.800600
      6 O2           1.3020     3.5870     2.6040 o          1 8YV      -0.813800
      7 O            0.4510     0.9780     2.9860 o          1 8YV      -0.508100
      8 C3           1.9400     0.0000     1.4430 c3         1 8YV       0.037100
      9 O3           1.5610    -1.2200     2.0820 oh         1 8YV      -0.604800
     10 C1           1.9380    -1.2500    -0.7210 c3         1 8YV       0.138100
     11 O5           3.3680    -1.2500    -0.7210 oh         1 8YV      -0.598800
     12 C            1.4290    -1.2510    -2.1630 c3         1 8YV       0.107400
     13 O6           1.8060    -2.4720    -2.8010 oh         1 8YV      -0.621800
     14 H1           1.7910     0.8840    -0.5110 h1         1 8YV       0.080700
     15 H2          -0.3140     0.7460    -0.4840 ho         1 8YV       0.399000
     16 H4           3.0190     0.0890     1.4440 h1         1 8YV       0.072700
     17 H5           2.1140    -1.3670     2.8320 ho         1 8YV       0.391000
     18 H6           1.5770    -2.1350    -0.2100 h1         1 8YV       0.065700
     19 H7           3.6820    -2.1390    -0.6900 ho         1 8YV       0.401000
     20 H8           1.8620    -0.4150    -2.6990 h1         1 8YV       0.031200
     21 H9           0.3490    -1.1610    -2.1640 h1         1 8YV       0.031200
     22 H10          1.4040    -2.5190    -3.6530 ho         1 8YV       0.392000
@<TRIPOS>BOND
     1     9     8 1
     2     3     1 1
     3     8     1 1
     4     8     2 1
     5     1    10 1
     6     4     5 1
     7     2     5 1
     8     2     7 2
     9     5     6 1
    10    10    12 1
    11    10    11 1
    12    12    13 1
    13     1    14 1
    14     3    15 1
    15     8    16 1
    16     9    17 1
    17    10    18 1
    18    11    19 1
    19    12    20 1
    20    12    21 1
    21    13    22 1
@<TRIPOS>SUBSTRUCTURE
     1 8YV         1 TEMP              0 ****  ****    0 ROOT
