@<TRIPOS>MOLECULE
molecule
   38    40     1     0     0
SMALL
bcc


@<TRIPOS>ATOM
      1 O24          0.0000     0.0000     0.0000 o          1 8YW      -0.203000
      2 O25          1.8270     0.0040    -1.0550 o          1 8YW      -0.203000
      3 N23          1.2180     0.0000     0.0000 no         1 8YW       0.292200
      4 C3           1.9590     0.0000     1.2820 ca         1 8YW      -0.149200
      5 C4           1.2680    -0.0120     2.4790 ca         1 8YW      -0.072000
      6 C5           1.9600    -0.0120     3.6760 ca         1 8YW      -0.116500
      7 C2           3.3420     0.0050     1.2810 ca         1 8YW      -0.072000
      8 C1           4.0330     0.0050     2.4780 ca         1 8YW      -0.116500
      9 C6           3.3420    -0.0010     3.6750 ca         1 8YW      -0.080300
     10 C7           4.0960    -0.0010     4.9810 c3         1 8YW       0.171400
     11 O22          5.2960    -0.7630     4.8380 oh         1 8YW      -0.596800
     12 C9           4.4470     1.4380     5.3650 c3         1 8YW       0.119000
     13 N10          5.1810     1.4380     6.6340 ns         1 8YW      -0.582900
     14 C11          5.5960     2.6020     7.1720 c          1 8YW       0.680700
     15 O12          5.3630     3.6520     6.6040 o          1 8YW      -0.603100
     16 C13          6.3340     2.6030     8.4500 ca         1 8YW      -0.146600
     17 C18          6.7610     3.8090     9.0120 ca         1 8YW      -0.053000
     18 C17          7.4520     3.8050    10.2080 ca         1 8YW       0.039100
     19 O19          7.9690     4.8230    10.9560 os         1 8YW      -0.320900
     20 C20          8.1970     4.2630    12.2620 c3         1 8YW       0.331200
     21 O21          8.4080     2.8620    12.0020 os         1 8YW      -0.323900
     22 C16          7.7210     2.5980    10.8540 ca         1 8YW       0.073100
     23 C15          7.2970     1.4000    10.2940 ca         1 8YW      -0.125000
     24 C14          6.6040     1.3980     9.1040 ca         1 8YW      -0.102000
     25 H1           0.1850    -0.0210     2.4800 ha         1 8YW       0.168500
     26 H2           1.4190    -0.0200     4.6140 ha         1 8YW       0.156000
     27 H3           3.8830     0.0100     0.3430 ha         1 8YW       0.168500
     28 H4           5.1160     0.0110     2.4770 ha         1 8YW       0.156000
     29 H5           3.4780    -0.4410     5.7540 h1         1 8YW       0.044700
     30 H6           5.1750    -1.6150     5.2230 ho         1 8YW       0.409000
     31 H7           3.5370     2.0150     5.4740 h1         1 8YW       0.069700
     32 H8           5.0640     1.8780     4.5910 h1         1 8YW       0.069700
     33 H9           5.3550     0.5760     7.1110 hn         1 8YW       0.315500
     34 H10          6.5900     4.7410     8.4880 ha         1 8YW       0.172000
     35 H11          7.3150     4.3940    12.8770 h2         1 8YW       0.075200
     36 H12          7.5050     0.4650    10.7990 ha         1 8YW       0.147000
     37 H13          6.2620     0.4620     8.6780 ha         1 8YW       0.132000
     38 H15          9.0910     4.6950    12.6960 h2         1 8YW       0.075200
@<TRIPOS>BOND
     1    19    20 1
     2    19    18 1
     3    20    21 1
     4    18    17 ar
     5    18    22 ar
     6    17    16 ar
     7    21    22 1
     8    15    14 2
     9    22    23 ar
    10    16    14 1
    11    16    24 ar
    12    14    13 1
    13    23    24 ar
    14     2     3 1
    15    12    13 1
    16    12    10 1
    17     6     5 ar
    18     6     9 ar
    19     5     4 ar
    20     3     4 1
    21     3     1 1
    22     9    10 1
    23     9     8 ar
    24     4     7 ar
    25    10    11 1
    26     8     7 ar
    27     5    25 1
    28     6    26 1
    29     7    27 1
    30     8    28 1
    31    10    29 1
    32    11    30 1
    33    12    31 1
    34    12    32 1
    35    13    33 1
    36    17    34 1
    37    20    35 1
    38    23    36 1
    39    24    37 1
    40    20    38 1
@<TRIPOS>SUBSTRUCTURE
     1 8YW         1 TEMP              0 ****  ****    0 ROOT
