@<TRIPOS>MOLECULE
8YW
   38    40     1     0     0
SMALL
bcc


@<TRIPOS>ATOM
      1 O24          0.0000     0.0000     0.0000 o          1 8YW      -0.448500
      2 O25          1.8270     0.0040    -1.0550 o          1 8YW      -0.448500
      3 N23          1.2180     0.0000     0.0000 no         1 8YW       1.046200
      4 C3           1.9590     0.0000     1.2820 ca         1 8YW      -0.445200
      5 C4           1.2680    -0.0120     2.4790 ca         1 8YW      -0.012000
      6 C5           1.9600    -0.0120     3.6760 ca         1 8YW      -0.099500
      7 C2           3.3420     0.0050     1.2810 ca         1 8YW      -0.012000
      8 C1           4.0330     0.0050     2.4780 ca         1 8YW      -0.099500
      9 C6           3.3420    -0.0010     3.6750 ca         1 8YW      -0.073300
     10 C7           4.0960    -0.0010     4.9810 c3         1 8YW       0.227400
     11 O22          5.2960    -0.7630     4.8380 oh         1 8YW      -0.580800
     12 C9           4.4470     1.4380     5.3650 c3         1 8YW       0.045000
     13 N10          5.1810     1.4380     6.6340 ns         1 8YW      -0.195900
     14 C11          5.5960     2.6020     7.1720 c          1 8YW       0.601700
     15 O12          5.3630     3.6520     6.6040 o          1 8YW      -0.646100
     16 C13          6.3340     2.6030     8.4500 ca         1 8YW      -0.157600
     17 C18          6.7610     3.8090     9.0120 ca         1 8YW      -0.021000
     18 C17          7.4520     3.8050    10.2080 ca         1 8YW       0.045100
     19 O19          7.9690     4.8230    10.9560 os         1 8YW      -0.309900
     20 C20          8.1970     4.2630    12.2620 c3         1 8YW       0.432200
     21 O21          8.4080     2.8620    12.0020 os         1 8YW      -0.313900
     22 C16          7.7210     2.5980    10.8540 ca         1 8YW       0.079100
     23 C15          7.2970     1.4000    10.2940 ca         1 8YW      -0.098000
     24 C14          6.6040     1.3980     9.1040 ca         1 8YW      -0.084000
     25 H1           0.1850    -0.0210     2.4800 ha         1 8YW       0.134500
     26 H2           1.4190    -0.0200     4.6140 ha         1 8YW       0.124000
     27 H3           3.8830     0.0100     0.3430 ha         1 8YW       0.134500
     28 H4           5.1160     0.0110     2.4770 ha         1 8YW       0.124000
     29 H5           3.4780    -0.4410     5.7540 h1         1 8YW       0.007700
     30 H6           5.1750    -1.6150     5.2230 ho         1 8YW       0.396000
     31 H7           3.5370     2.0150     5.4740 h1         1 8YW       0.039200
     32 H8           5.0640     1.8780     4.5910 h1         1 8YW       0.039200
     33 H9           5.3550     0.5760     7.1110 hn         1 8YW       0.179500
     34 H10          6.5900     4.7410     8.4880 ha         1 8YW       0.138000
     35 H11          7.3150     4.3940    12.8770 h2         1 8YW       0.016700
     36 H12          7.5050     0.4650    10.7990 ha         1 8YW       0.114000
     37 H13          6.2620     0.4620     8.6780 ha         1 8YW       0.103000
     38 H15          9.0910     4.6950    12.6960 h2         1 8YW       0.016700
@<TRIPOS>BOND
     1     1     3 1   
     2     2     3 1   
     3     3     4 1   
     4     4     5 ar  
     5     4     7 ar  
     6     5     6 ar  
     7     5    25 1   
     8     6     9 ar  
     9     6    26 1   
    10     7     8 ar  
    11     7    27 1   
    12     8     9 ar  
    13     8    28 1   
    14     9    10 1   
    15    10    11 1   
    16    10    12 1   
    17    10    29 1   
    18    11    30 1   
    19    12    13 1   
    20    12    31 1   
    21    12    32 1   
    22    13    14 1   
    23    13    33 1   
    24    14    15 2   
    25    14    16 1   
    26    16    17 ar  
    27    16    24 ar  
    28    17    18 ar  
    29    17    34 1   
    30    18    19 1   
    31    18    22 ar  
    32    19    20 1   
    33    20    21 1   
    34    20    35 1   
    35    20    38 1   
    36    21    22 1   
    37    22    23 ar  
    38    23    24 ar  
    39    23    36 1   
    40    24    37 1   
@<TRIPOS>SUBSTRUCTURE
     1 8YW         1 TEMP              0 ****  ****    0 ROOT
