@<TRIPOS>MOLECULE
molecule
   77    81     1     0     0
SMALL
bcc


@<TRIPOS>ATOM
      1 N1          -1.3040     0.0130    -2.2110 n1         1 8YZ      -0.403800
      2 C15         -0.7200     0.0010    -1.2380 cg         1 8YZ       0.263800
      3 C14          0.0000     0.0000     0.0000 ca         1 8YZ      -0.036000
      4 C13          1.3960     0.0000     0.0000 ca         1 8YZ      -0.079000
      5 C12          2.0830     0.0000     1.1970 ca         1 8YZ      -0.127000
      6 C11          1.3910    -0.0010     2.3940 ca         1 8YZ      -0.049000
      7 C16         -0.6920     0.0060     1.2140 ca         1 8YZ      -0.056000
      8 C10          0.0070    -0.0010     2.4020 ca         1 8YZ      -0.081300
      9 C9          -0.7380     0.0030     3.7120 c3         1 8YZ       0.187700
     10 O3          -0.9850    -1.3420     4.1250 os         1 8YZ      -0.250900
     11 C8          -1.6520    -1.5150     5.2960 ca         1 8YZ       0.205100
     12 C4          -1.9250    -2.7950     5.7570 ca         1 8YZ      -0.121300
     13 C3          -1.4820    -3.9930     4.9580 c3         1 8YZ       0.218100
     14 N           -0.0560    -4.2480     5.2060 n7         1 8YZ      -0.766200
     15 C1           0.4120    -5.4120     4.4420 c3         1 8YZ       0.061500
     16 C2           0.7990    -4.9770     3.0520 c          1 8YZ       0.906600
     17 O2           0.6950    -3.8170     2.7310 o          1 8YZ      -0.836800
     18 O1           1.2580    -5.8790     2.1700 o          1 8YZ      -0.836800
     19 C            1.6270    -6.0250     5.1410 c3         1 8YZ       0.160400
     20 O            2.7110    -5.0960     5.1150 oh         1 8YZ      -0.573800
     21 C17         -2.0550    -0.4140     6.0340 ca         1 8YZ      -0.327000
     22 C18         -2.7300    -0.5940     7.2320 ca         1 8YZ       0.161100
     23 C6          -3.0010    -1.8750     7.6880 ca         1 8YZ      -0.163300
     24 C7          -3.7350    -2.0730     8.9890 c3         1 8YZ      -0.025800
     25 C5          -2.6030    -2.9720     6.9470 ca         1 8YZ      -0.067000
     26 O4          -3.1220     0.4850     7.9610 os         1 8YZ      -0.336900
     27 C19         -2.8100     1.7730     7.4300 c3         1 8YZ       0.188700
     28 C20         -3.3180     2.8390     8.3670 ca         1 8YZ      -0.085300
     29 C34         -3.9670     2.4790     9.5350 ca         1 8YZ      -0.095000
     30 C33         -4.4320     3.4510    10.4020 ca         1 8YZ      -0.140000
     31 C32         -4.2500     4.7870    10.1070 ca         1 8YZ      -0.115000
     32 C23         -3.5970     5.1560     8.9320 cp         1 8YZ      -0.046000
     33 C21         -3.1310     4.1720     8.0620 ca         1 8YZ      -0.063300
     34 C22         -2.4180     4.5630     6.7930 c3         1 8YZ      -0.055800
     35 C24         -3.3980     6.5900     8.6100 cp         1 8YZ      -0.032000
     36 C31         -3.8680     7.1050     7.4030 ca         1 8YZ      -0.118000
     37 C30         -3.6810     8.4390     7.1040 ca         1 8YZ      -0.125000
     38 C27         -3.0270     9.2710     8.0010 ca         1 8YZ       0.058100
     39 O5          -2.8510    10.5850     7.6840 os         1 8YZ      -0.323900
     40 C28         -2.5240    11.4680     8.7620 c3         1 8YZ       0.097400
     41 C29         -1.4210    10.8140     9.6040 c3         1 8YZ       0.101400
     42 O6          -1.9180     9.5670    10.1020 os         1 8YZ      -0.323900
     43 C26         -2.5580     8.7630     9.2090 ca         1 8YZ       0.060100
     44 C25         -2.7480     7.4250     9.5150 ca         1 8YZ      -0.113000
     45 H1           1.9380    -0.0710    -0.9350 ha         1 8YZ       0.133000
     46 H2           3.1660     0.0080     1.1980 ha         1 8YZ       0.134000
     47 H3           1.9360     0.0030     3.3310 ha         1 8YZ       0.142000
     48 H4          -1.7720     0.0950     1.2210 ha         1 8YZ       0.133000
     49 H5          -0.1430     0.5080     4.4640 h1         1 8YZ       0.026700
     50 H6          -1.6810     0.5220     3.5890 h1         1 8YZ       0.026700
     51 H7          -2.0600    -4.8590     5.2550 h1         1 8YZ       0.041200
     52 H8          -1.6350    -3.8010     3.9030 h1         1 8YZ       0.041200
     53 H9           0.0890    -4.4100     6.1830 hn         1 8YZ       0.315800
     54 H11         -0.3810    -6.1480     4.3830 h1         1 8YZ       0.016700
     55 H13          1.9180    -6.9340     4.6280 h1         1 8YZ       0.002200
     56 H14          1.3740    -6.2570     6.1690 h1         1 8YZ       0.002200
     57 H15          3.4470    -5.4590     5.5800 ho         1 8YZ       0.365000
     58 H16         -1.8420     0.5860     5.6760 ha         1 8YZ       0.130000
     59 H17         -3.1580    -1.6430     9.7990 hc         1 8YZ       0.033033
     60 H18         -4.7010    -1.5860     8.9370 hc         1 8YZ       0.033033
     61 H19         -3.8740    -3.1320     9.1680 hc         1 8YZ       0.033033
     62 H20         -2.8150    -3.9720     7.3050 ha         1 8YZ       0.134000
     63 H21         -1.7360     1.8690     7.3230 h1         1 8YZ       0.047200
     64 H22         -3.2810     1.8890     6.4620 h1         1 8YZ       0.047200
     65 H23         -4.1120     1.4320     9.7710 ha         1 8YZ       0.155000
     66 H24         -4.9410     3.1640    11.3140 ha         1 8YZ       0.129000
     67 H25         -4.6670     5.5460    10.7560 ha         1 8YZ       0.131000
     68 H26         -3.1250     4.5760     5.9720 hc         1 8YZ       0.047700
     69 H27         -1.9840     5.5480     6.9110 hc         1 8YZ       0.047700
     70 H28         -1.6340     3.8450     6.5830 hc         1 8YZ       0.047700
     71 H29         -4.4440     6.4760     6.7350 ha         1 8YZ       0.144000
     72 H30         -4.0470     8.8390     6.1660 ha         1 8YZ       0.145000
     73 H31         -3.4020    11.6330     9.3760 h1         1 8YZ       0.064700
     74 H32         -2.1680    12.4110     8.3650 h1         1 8YZ       0.064700
     75 H33         -1.1850    11.4600    10.4420 h1         1 8YZ       0.068200
     76 H34         -0.5600    10.6250     8.9740 h1         1 8YZ       0.068200
     77 H35         -2.3420     7.0170    10.4330 ha         1 8YZ       0.152000
@<TRIPOS>BOND
     1    30    31 ar  
     2    30    29 ar  
     3    42    41 1   
     4    42    43 1   
     5    41    40 1   
     6    31    32 ar  
     7    29    28 ar  
     8    44    43 ar  
     9    44    35 ar  
    10    43    38 ar  
    11    40    39 1   
    12    32    35 1   
    13    32    33 ar  
    14    28    33 ar  
    15    28    27 1   
    16    35    36 ar  
    17    26    27 1   
    18    26    22 1   
    19    33    34 1   
    20    24    23 1   
    21    38    39 1   
    22    38    37 ar  
    23    22    23 ar  
    24    22    21 ar  
    25    23    25 ar  
    26    36    37 ar  
    27    21    11 ar  
    28    25    12 ar  
    29    11    12 ar  
    30    11    10 1   
    31    12    13 1   
    32     9    10 1   
    33     9     8 1   
    34     7     8 ar  
    35     7     3 ar  
    36     8     6 ar  
    37     1     2 3   
    38    13    14 1   
    39     2     3 1   
    40     3     4 ar  
    41     6     5 ar  
    42     4     5 ar  
    43    14    15 1   
    44    17    16 1   
    45    16    15 1   
    46    16    18 1   
    47    15    19 1   
    48    19    20 1   
    49     4    45 1   
    50     5    46 1   
    51     6    47 1   
    52     7    48 1   
    53     9    49 1   
    54     9    50 1   
    55    13    51 1   
    56    13    52 1   
    57    14    53 1   
    58    15    54 1   
    59    19    55 1   
    60    19    56 1   
    61    20    57 1   
    62    21    58 1   
    63    24    59 1   
    64    24    60 1   
    65    24    61 1   
    66    25    62 1   
    67    27    63 1   
    68    27    64 1   
    69    29    65 1   
    70    30    66 1   
    71    31    67 1   
    72    34    68 1   
    73    34    69 1   
    74    34    70 1   
    75    36    71 1   
    76    37    72 1   
    77    40    73 1   
    78    40    74 1   
    79    41    75 1   
    80    41    76 1   
    81    44    77 1   
@<TRIPOS>SUBSTRUCTURE
     1 8YZ         1 TEMP              0 ****  ****    0 ROOT
