@<TRIPOS>MOLECULE
molecule
   56    59     1     0     0
SMALL
bcc


@<TRIPOS>ATOM
      1 NAU         -1.2200    -0.0140    -2.2590 n1         1 8Z1      -0.258800
      2 CAT         -0.6890    -0.0040    -1.2550 cg         1 8Z1       0.176500
      3 CAP          0.0000     0.0000     0.0000 ce         1 8Z1       0.119100
      4 CAO          1.3520     0.0000     0.0000 c2         1 8Z1       0.063100
      5 NAY          1.9980     0.0000    -1.2120 nz         1 8Z1      -0.754400
      6 OAN          2.1030     0.0000     1.1200 os         1 8Z1      -0.248200
      7 CAM          1.4810    -0.2790     2.2930 cc         1 8Z1       0.098800
      8 NAX          2.0060    -0.5800     3.4910 na         1 8Z1      -0.005600
      9 NAW          0.9440    -0.7860     4.3860 nc         1 8Z1      -0.448800
     10 CAV         -0.1830    -0.6110     3.7380 cd         1 8Z1       0.393600
     11 CAZ         -1.5670    -0.7360     4.3220 c3         1 8Z1      -0.125400
     12 CAL          0.1200    -0.2920     2.4220 cd         1 8Z1      -0.336600
     13 CAK         -0.8090     0.0110     1.2740 c3         1 8Z1       0.151800
     14 CAQ         -1.9010    -1.0590     1.2000 c3         1 8Z1      -0.178700
     15 CAS         -2.7220    -0.8620    -0.0750 c3         1 8Z1      -0.112100
     16 CAR         -1.2550    -2.4460     1.1820 c3         1 8Z1      -0.112100
     17 CAD         -1.4360     1.3670     1.4650 ca         1 8Z1      -0.075300
     18 CAC         -0.6430     2.4990     1.4820 ca         1 8Z1      -0.157000
     19 CAE         -2.8050     1.4790     1.6180 ca         1 8Z1      -0.108000
     20 CAF         -3.3850     2.7220     1.7940 ca         1 8Z1      -0.144300
     21 CAG         -4.8790     2.8390     1.9600 c3         1 8Z1       0.675200
     22 FAI         -5.2050     2.7530     3.3180 f          1 8Z1      -0.216967
     23 FAJ         -5.3100     4.0700     1.4540 f          1 8Z1      -0.216967
     24 FAH         -5.5090     1.8020     1.2630 f          1 8Z1      -0.216967
     25 CAB         -2.5980     3.8560     1.8180 ca         1 8Z1      -0.107000
     26 CAA         -1.2220     3.7490     1.6590 ca         1 8Z1       0.132600
     27 NBA         -0.4240     4.8940     1.6770 nh         1 8Z1      -0.541000
     28 CBB         -0.9280     5.8740     2.6560 c3         1 8Z1       0.020300
     29 CBC          0.2230     6.1760     3.6370 c3         1 8Z1      -0.061400
     30 CBD          1.4860     5.7820     2.8260 c3         1 8Z1      -0.061400
     31 CBE          0.9740     4.5590     2.0250 c3         1 8Z1       0.020300
     32 H1           1.7870    -0.8460    -1.7030 hn         1 8Z1       0.506800
     33 H2           2.9860     0.0620    -1.0630 hn         1 8Z1       0.506800
     34 H3           2.9690    -0.7720     3.6800 hn         1 8Z1       0.347700
     35 H4          -1.5170    -0.6180     5.3970 hc         1 8Z1       0.070033
     36 H5          -1.9720    -1.7130     4.0850 hc         1 8Z1       0.070033
     37 H6          -2.2070     0.0310     3.9030 hc         1 8Z1       0.070033
     38 H7          -1.9170    -1.6220     2.1250 hc         1 8Z1       0.177700
     39 H8          -3.2040    -1.7940    -0.3410 hc         1 8Z1       0.049867
     40 H9          -2.0690    -0.5500    -0.8810 hc         1 8Z1       0.049867
     41 H10         -3.4750    -0.1020     0.0940 hc         1 8Z1       0.049867
     42 H11         -0.5370    -2.4990     0.3720 hc         1 8Z1       0.049867
     43 H12         -2.0200    -3.1990     1.0360 hc         1 8Z1       0.049867
     44 H13         -0.7500    -2.6220     2.1240 hc         1 8Z1       0.049867
     45 H14          0.4270     2.4120     1.3350 ha         1 8Z1       0.127000
     46 H15         -3.4280     0.5940     1.5820 ha         1 8Z1       0.167000
     47 H16         -3.0480     4.8230     2.0080 ha         1 8Z1       0.164000
     48 H17         -0.5410     6.8600     2.4290 h1         1 8Z1       0.094700
     49 H18         -2.0120     5.8810     2.6510 h1         1 8Z1       0.094700
     50 H19          0.1720     5.5080     4.4890 hc         1 8Z1       0.059950
     51 H20          0.1780     7.2090     3.9600 hc         1 8Z1       0.059950
     52 H21          2.0200     6.6710     2.5130 hc         1 8Z1       0.059950
     53 H22          2.1270     5.1430     3.4210 hc         1 8Z1       0.059950
     54 H23          1.2040     3.5470     1.7140 h1         1 8Z1       0.094700
     55 H24          1.6530     5.2640     1.5590 h1         1 8Z1       0.094700
     56 HAY3         2.9600    -0.2420    -1.0770 hn         1 8Z1       0.506800
@<TRIPOS>BOND
     1    29    30 1   
     2    29    28 1   
     3    30    31 1   
     4     5     4 1   
     5    31    27 1   
     6    28    27 1   
     7     8     7 1   
     8     8     9 1   
     9     6     4 1   
    10     6     7 1   
    11     4     3 2   
    12    27    26 1   
    13     7    12 2   
    14     9    10 2   
    15    18    26 ar  
    16    18    17 ar  
    17    26    25 ar  
    18     3     2 1   
    19     3    13 1   
    20    12    10 1   
    21    12    13 1   
    22    10    11 1   
    23     2     1 3   
    24    13    17 1   
    25    13    14 1   
    26    17    19 ar  
    27    25    20 ar  
    28    19    20 ar  
    29    20    21 1   
    30    15    14 1   
    31    14    16 1   
    32    24    21 1   
    33    21    22 1   
    34    21    23 1   
    35     5    32 1   
    36     5    33 1   
    37     8    34 1   
    38    11    35 1   
    39    11    36 1   
    40    11    37 1   
    41    14    38 1   
    42    15    39 1   
    43    15    40 1   
    44    15    41 1   
    45    16    42 1   
    46    16    43 1   
    47    16    44 1   
    48    18    45 1   
    49    19    46 1   
    50    25    47 1   
    51    28    48 1   
    52    28    49 1   
    53    29    50 1   
    54    29    51 1   
    55    30    52 1   
    56    30    53 1   
    57    31    54 1   
    58    31    55 1   
    59    56     5 1   
@<TRIPOS>SUBSTRUCTURE
     1 8Z1         1 TEMP              0 ****  ****    0 ROOT
