@<TRIPOS>MOLECULE
8Z1
   56    60     1     0     0
SMALL
bcc


@<TRIPOS>ATOM
      1 NAU         -1.2200    -0.0140    -2.2590 n1         1 8Z1       0.073000
      2 CAT         -0.6890    -0.0040    -1.2550 c1         1 8Z1      -0.145000
      3 CAP          0.0000     0.0000     0.0000 c2         1 8Z1       0.154000
      4 CAO          1.3520     0.0000     0.0000 c2         1 8Z1      -0.202000
      5 NAY          1.9980     0.0000    -1.2120 nz         1 8Z1       0.386000
      6 OAN          2.1030     0.0000     1.1200 os         1 8Z1      -0.104000
      7 CAM          1.4810    -0.2790     2.2930 c2         1 8Z1      -0.099000
      8 NAX          2.0060    -0.5800     3.4910 na         1 8Z1       0.360000
      9 NAW          0.9440    -0.7860     4.3860 n2         1 8Z1      -0.179000
     10 CAV         -0.1830    -0.6110     3.7380 c2         1 8Z1       0.008000
     11 CAZ         -1.5670    -0.7360     4.3220 c3         1 8Z1      -0.051000
     12 CAL          0.1200    -0.2920     2.4220 c2         1 8Z1      -0.299000
     13 CAK         -0.8090     0.0110     1.2740 c3         1 8Z1       0.171000
     14 CAQ         -1.9010    -1.0590     1.2000 c3         1 8Z1      -0.220000
     15 CAS         -2.7220    -0.8620    -0.0750 c3         1 8Z1      -0.168000
     16 CAR         -1.2550    -2.4460     1.1820 c3         1 8Z1      -0.168000
     17 CAD         -1.4360     1.3670     1.4650 ca         1 8Z1      -0.077000
     18 CAC         -0.6430     2.4990     1.4820 ca         1 8Z1      -0.150000
     19 CAE         -2.8050     1.4790     1.6180 ca         1 8Z1      -0.089000
     20 CAF         -3.3850     2.7220     1.7940 ca         1 8Z1      -0.153000
     21 CAG         -4.8790     2.8390     1.9600 c3         1 8Z1       0.419000
     22 FAI         -5.2050     2.7530     3.3180 f          1 8Z1      -0.131000
     23 FAJ         -5.3100     4.0700     1.4540 f          1 8Z1      -0.131000
     24 FAH         -5.5090     1.8020     1.2630 f          1 8Z1      -0.131000
     25 CAB         -2.5980     3.8560     1.8180 ca         1 8Z1      -0.077000
     26 CAA         -1.2220     3.7490     1.6590 ca         1 8Z1      -0.023000
     27 NBA         -0.4240     4.8940     1.6770 nh         1 8Z1       0.090000
     28 CBB         -0.9280     5.8740     2.6560 c3         1 8Z1      -0.258500
     29 CBC          0.2230     6.1760     3.6370 c3         1 8Z1      -0.064500
     30 CBD          1.4860     5.7820     2.8260 c3         1 8Z1      -0.064500
     31 CBE          0.9740     4.5590     2.0250 c3         1 8Z1      -0.258500
     32 H1           1.7870    -0.8460    -1.7030 hn         1 8Z1       0.097000
     33 H2           2.9860     0.0620    -1.0630 DU         1 8Z1       0.234000
     34 H3           2.9690    -0.7720     3.6800 hn         1 8Z1       0.109000
     35 H4          -1.5170    -0.6180     5.3970 hc         1 8Z1       0.070333
     36 H5          -1.9720    -1.7130     4.0850 hc         1 8Z1       0.070333
     37 H6          -2.2070     0.0310     3.9030 hc         1 8Z1       0.070333
     38 H7          -1.9170    -1.6220     2.1250 hc         1 8Z1       0.202000
     39 H8          -3.2040    -1.7940    -0.3410 hc         1 8Z1       0.064500
     40 H9          -2.0690    -0.5500    -0.8810 hc         1 8Z1       0.064500
     41 H10         -3.4750    -0.1020     0.0940 hc         1 8Z1       0.064500
     42 H11         -0.5370    -2.4990     0.3720 hc         1 8Z1       0.064500
     43 H12         -2.0200    -3.1990     1.0360 hc         1 8Z1       0.064500
     44 H13         -0.7500    -2.6220     2.1240 hc         1 8Z1       0.064500
     45 H14          0.4270     2.4120     1.3350 ha         1 8Z1       0.112000
     46 H15         -3.4280     0.5940     1.5820 ha         1 8Z1       0.155000
     47 H16         -3.0480     4.8230     2.0080 ha         1 8Z1       0.141000
     48 H17         -0.5410     6.8600     2.4290 h1         1 8Z1       0.109750
     49 H18         -2.0120     5.8810     2.6510 h1         1 8Z1       0.109750
     50 H19          0.1720     5.5080     4.4890 hc         1 8Z1       0.065000
     51 H20          0.1780     7.2090     3.9600 hc         1 8Z1       0.065000
     52 H21          2.0200     6.6710     2.5130 hc         1 8Z1       0.065000
     53 H22          2.1270     5.1430     3.4210 hc         1 8Z1       0.065000
     54 H23          1.2040     3.5470     1.7140 h1         1 8Z1       0.109750
     55 H24          1.6530     5.2640     1.5590 h1         1 8Z1       0.109750
     56 HAY3         2.9600    -0.2420    -1.0770 DU         1 8Z1       0.234000
@<TRIPOS>BOND
     1     1     2 1   
     2     2     3 1   
     3     3     4 1   
     4     3    13 1   
     5     4     5 1   
     6     4     6 1   
     7     5    32 1   
     8     5    33 1   
     9     5    56 1   
    10     6     7 1   
    11     7     8 1   
    12     7    12 1   
    13     8     9 1   
    14     8    34 1   
    15     9    10 1   
    16    10    11 1   
    17    10    12 1   
    18    11    35 1   
    19    11    36 1   
    20    11    37 1   
    21    12    13 1   
    22    13    14 1   
    23    13    17 1   
    24    14    15 1   
    25    14    16 1   
    26    14    38 1   
    27    15    39 1   
    28    15    40 1   
    29    15    41 1   
    30    16    42 1   
    31    16    43 1   
    32    16    44 1   
    33    17    18 1   
    34    17    19 1   
    35    18    26 1   
    36    18    45 1   
    37    19    20 1   
    38    19    46 1   
    39    20    21 1   
    40    20    25 1   
    41    21    22 1   
    42    21    23 1   
    43    21    24 1   
    44    25    26 1   
    45    25    47 1   
    46    26    27 1   
    47    27    28 1   
    48    27    31 1   
    49    28    29 1   
    50    28    48 1   
    51    28    49 1   
    52    29    30 1   
    53    29    50 1   
    54    29    51 1   
    55    30    31 1   
    56    30    52 1   
    57    30    53 1   
    58    31    54 1   
    59    31    55 1   
    60    33    56 1   
@<TRIPOS>SUBSTRUCTURE
     1 8Z1         1 TEMP              0 ****  ****    0 ROOT
