@<TRIPOS>MOLECULE
molecule
   69    73     1     0     0
SMALL
bcc


@<TRIPOS>ATOM
      1 O3           0.0000     0.0000     0.0000 o          1 8Z4      -0.622500
      2 C28          1.2140     0.0000     0.0000 c          1 8Z4       0.689500
      3 N            1.9110     0.0000     1.1600 n          1 8Z4      -0.248800
      4 C1           1.2070    -0.0860     2.4410 c3         1 8Z4       0.133700
      5 C2           1.6650    -1.3370     3.1930 c3         1 8Z4      -0.104600
      6 C            1.5200     1.1550     3.2800 c3         1 8Z4      -0.104600
      7 C27          1.9870    -0.0070    -1.2910 c3         1 8Z4      -0.142700
      8 C26          1.1540    -0.5160    -2.4530 c3         1 8Z4      -0.029200
      9 C25          1.0010    -2.0050    -2.4040 c2         1 8Z4      -0.158200
     10 C24          1.7310    -2.7780    -1.6680 c2         1 8Z4      -0.178200
     11 C23          2.8100    -2.2960    -0.7500 c3         1 8Z4      -0.041200
     12 C22          3.2430    -0.8670    -1.1040 c3         1 8Z4      -0.138000
     13 C3           3.9850    -0.3130     0.0970 ce         1 8Z4       0.407900
     14 N1           3.3090     0.0810     1.1300 n2         1 8Z4      -0.454300
     15 C4           5.4570    -0.2290     0.0920 ca         1 8Z4      -0.159900
     16 C21          6.1320     0.2830     1.2010 ca         1 8Z4      -0.042000
     17 C9           7.5210     0.3590     1.1890 cp         1 8Z4      -0.082000
     18 C7           8.2340    -0.0780     0.0650 ca         1 8Z4       0.165100
     19 O            9.5880    -0.0050     0.0510 os         1 8Z4      -0.319900
     20 C8          10.2510    -0.4680    -1.1270 c3         1 8Z4       0.125700
     21 C6           7.5550    -0.5860    -1.0330 ca         1 8Z4      -0.227000
     22 C5           6.1790    -0.6680    -1.0230 ca         1 8Z4      -0.068000
     23 C10          8.2440     0.9020     2.3630 cp         1 8Z4      -0.007000
     24 C20          7.8580     2.1230     2.9160 ca         1 8Z4      -0.120500
     25 C19          8.5310     2.6280     4.0060 ca         1 8Z4      -0.096500
     26 C13          9.5990     1.9170     4.5580 ca         1 8Z4      -0.142600
     27 C12          9.9840     0.6930     4.0040 ca         1 8Z4      -0.096500
     28 C11          9.3070     0.1880     2.9170 ca         1 8Z4      -0.120500
     29 C14         10.3210     2.4580     5.7280 c          1 8Z4       0.693700
     30 O2           9.7660     3.2370     6.4780 o          1 8Z4      -0.602100
     31 N2          11.5950     2.0880     5.9630 n          1 8Z4      -0.493800
     32 C18         12.3890     2.4530     7.1460 c3         1 8Z4       0.095000
     33 C17         13.7890     1.8280     6.9690 c3         1 8Z4       0.128100
     34 O1          14.8040     2.7250     7.4230 oh         1 8Z4      -0.592800
     35 C16         13.8850     1.6210     5.4340 c3         1 8Z4      -0.110400
     36 C15         12.4230     1.2450     5.0800 c3         1 8Z4       0.089000
     37 H27          2.2960     1.0080    -1.5100 hc         1 8Z4       0.077700
     38 H1           0.1400    -0.1420     2.2640 h1         1 8Z4       0.092700
     39 H21C         2.7330    -1.2840     3.3640 hc         1 8Z4       0.044033
     40 H22C         1.1490    -1.3970     4.1430 hc         1 8Z4       0.044033
     41 H23C         1.4370    -2.2160     2.6020 hc         1 8Z4       0.044033
     42 HC1          0.8050     1.2340     4.0900 hc         1 8Z4       0.044033
     43 HC2          2.5200     1.0720     3.6880 hc         1 8Z4       0.044033
     44 HC3          1.4570     2.0380     2.6550 hc         1 8Z4       0.044033
     45 H261         1.6400    -0.2410    -3.3820 hc         1 8Z4       0.066200
     46 H262         0.1730    -0.0580    -2.4110 hc         1 8Z4       0.066200
     47 H22          3.8650    -0.8530    -1.9910 hc         1 8Z4       0.076700
     48 H25          0.2350    -2.4610    -3.0200 ha         1 8Z4       0.125000
     49 H24          1.5500    -3.8450    -1.7190 ha         1 8Z4       0.123000
     50 H231         3.6660    -2.9550    -0.8340 hc         1 8Z4       0.059700
     51 H232         2.4420    -2.3120     0.2680 hc         1 8Z4       0.059700
     52 H21          5.5770     0.6200     2.0680 ha         1 8Z4       0.164000
     53 H5           5.6550    -1.0650    -1.8840 ha         1 8Z4       0.137000
     54 H6           8.1090    -0.9250    -1.9000 ha         1 8Z4       0.140000
     55 H81C        10.0160    -1.5130    -1.2870 h1         1 8Z4       0.044033
     56 H82C         9.9190     0.1120    -1.9800 h1         1 8Z4       0.044033
     57 H83C        11.3220    -0.3540    -1.0080 h1         1 8Z4       0.044033
     58 H20          7.0300     2.6740     2.4880 ha         1 8Z4       0.140000
     59 H11          9.6060    -0.7610     2.4870 ha         1 8Z4       0.140000
     60 H19          8.2310     3.5760     4.4360 ha         1 8Z4       0.148000
     61 H12         10.8110     0.1400     4.4330 ha         1 8Z4       0.148000
     62 H181        12.4740     3.5310     7.2130 h1         1 8Z4       0.063700
     63 H182        11.9210     2.0580     8.0390 h1         1 8Z4       0.063700
     64 H151        12.2440     0.1970     5.2850 h1         1 8Z4       0.052200
     65 H152        12.2170     1.4740     4.0410 h1         1 8Z4       0.052200
     66 H17         13.8500     0.8780     7.4850 h1         1 8Z4       0.042700
     67 HA          15.3240     2.3020     8.0850 ho         1 8Z4       0.405000
     68 H161        14.5610     0.8090     5.1960 hc         1 8Z4       0.066200
     69 H162        14.1790     2.5390     4.9380 hc         1 8Z4       0.066200
@<TRIPOS>BOND
     1     1     2 2   
     2     2     3 1   
     3     2     7 1   
     4     3     4 1   
     5     3    14 1   
     6     4     5 1   
     7     4     6 1   
     8     7     8 1   
     9     7    12 1   
    10     8     9 1   
    11     9    10 2   
    12    10    11 1   
    13    11    12 1   
    14    12    13 1   
    15    13    14 2   
    16    13    15 1   
    17    15    16 ar  
    18    15    22 ar  
    19    16    17 ar  
    20    17    18 ar  
    21    17    23 1   
    22    18    19 1   
    23    18    21 ar  
    24    19    20 1   
    25    21    22 ar  
    26    23    24 ar  
    27    23    28 ar  
    28    24    25 ar  
    29    25    26 ar  
    30    26    27 ar  
    31    26    29 1   
    32    27    28 ar  
    33    29    30 2   
    34    29    31 1   
    35    31    32 1   
    36    31    36 1   
    37    32    33 1   
    38    33    34 1   
    39    33    35 1   
    40    35    36 1   
    41     7    37 1   
    42     4    38 1   
    43     5    39 1   
    44     5    40 1   
    45     5    41 1   
    46     6    42 1   
    47     6    43 1   
    48     6    44 1   
    49     8    45 1   
    50     8    46 1   
    51    12    47 1   
    52     9    48 1   
    53    10    49 1   
    54    11    50 1   
    55    11    51 1   
    56    16    52 1   
    57    22    53 1   
    58    21    54 1   
    59    20    55 1   
    60    20    56 1   
    61    20    57 1   
    62    24    58 1   
    63    28    59 1   
    64    25    60 1   
    65    27    61 1   
    66    32    62 1   
    67    32    63 1   
    68    36    64 1   
    69    36    65 1   
    70    33    66 1   
    71    34    67 1   
    72    35    68 1   
    73    35    69 1   
@<TRIPOS>SUBSTRUCTURE
     1 8Z4         1 TEMP              0 ****  ****    0 ROOT
