@<TRIPOS>MOLECULE
8Z4
   69    73     1     0     0
SMALL
bcc


@<TRIPOS>ATOM
      1 O3           0.0000     0.0000     0.0000 o          1 8Z4      -0.657500
      2 C28          1.2140     0.0000     0.0000 c          1 8Z4       0.614500
      3 N            1.9110     0.0000     1.1600 n          1 8Z4       0.082200
      4 C1           1.2070    -0.0860     2.4410 c3         1 8Z4       0.034700
      5 C2           1.6650    -1.3370     3.1930 c3         1 8Z4      -0.011600
      6 C            1.5200     1.1550     3.2800 c3         1 8Z4      -0.011600
      7 C27          1.9870    -0.0070    -1.2910 c3         1 8Z4      -0.121700
      8 C26          1.1540    -0.5160    -2.4530 c3         1 8Z4       0.037800
      9 C25          1.0010    -2.0050    -2.4040 c2         1 8Z4      -0.135200
     10 C24          1.7310    -2.7780    -1.6680 c2         1 8Z4      -0.167200
     11 C23          2.8100    -2.2960    -0.7500 c3         1 8Z4       0.021800
     12 C22          3.2430    -0.8670    -1.1040 c3         1 8Z4      -0.110000
     13 C3           3.9850    -0.3130     0.0970 ce         1 8Z4       0.412900
     14 N1           3.3090     0.0810     1.1300 n2         1 8Z4      -0.518300
     15 C4           5.4570    -0.2290     0.0920 ca         1 8Z4      -0.175900
     16 C21          6.1320     0.2830     1.2010 ca         1 8Z4      -0.014000
     17 C9           7.5210     0.3590     1.1890 cp         1 8Z4      -0.086000
     18 C7           8.2340    -0.0780     0.0650 ca         1 8Z4       0.176100
     19 O            9.5880    -0.0050     0.0510 os         1 8Z4      -0.299900
     20 C8          10.2510    -0.4680    -1.1270 c3         1 8Z4       0.239700
     21 C6           7.5550    -0.5860    -1.0330 ca         1 8Z4      -0.217000
     22 C5           6.1790    -0.6680    -1.0230 ca         1 8Z4      -0.043000
     23 C10          8.2440     0.9020     2.3630 cp         1 8Z4      -0.002000
     24 C20          7.8580     2.1230     2.9160 ca         1 8Z4      -0.098000
     25 C19          8.5310     2.6280     4.0060 ca         1 8Z4      -0.077000
     26 C13          9.5990     1.9170     4.5580 ca         1 8Z4      -0.152600
     27 C12          9.9840     0.6930     4.0040 ca         1 8Z4      -0.077000
     28 C11          9.3070     0.1880     2.9170 ca         1 8Z4      -0.098000
     29 C14         10.3210     2.4580     5.7280 c          1 8Z4       0.628700
     30 O2           9.7660     3.2370     6.4780 o          1 8Z4      -0.645100
     31 N2          11.5950     2.0880     5.9630 n          1 8Z4      -0.157800
     32 C18         12.3890     2.4530     7.1460 c3         1 8Z4       0.038000
     33 C17         13.7890     1.8280     6.9690 c3         1 8Z4       0.180100
     34 O1          14.8040     2.7250     7.4230 oh         1 8Z4      -0.571800
     35 C16         13.8850     1.6210     5.4340 c3         1 8Z4      -0.055400
     36 C15         12.4230     1.2450     5.0800 c3         1 8Z4       0.035000
     37 H27          2.2960     1.0080    -1.5100 hc         1 8Z4       0.047700
     38 H1           0.1400    -0.1420     2.2640 h1         1 8Z4       0.066700
     39 H21C         2.7330    -1.2840     3.3640 hc         1 8Z4       0.012200
     40 H22C         1.1490    -1.3970     4.1430 hc         1 8Z4       0.012200
     41 H23C         1.4370    -2.2160     2.6020 hc         1 8Z4       0.012200
     42 HC1          0.8050     1.2340     4.0900 hc         1 8Z4       0.012200
     43 HC2          2.5200     1.0720     3.6880 hc         1 8Z4       0.012200
     44 HC3          1.4570     2.0380     2.6550 hc         1 8Z4       0.012200
     45 H261         1.6400    -0.2410    -3.3820 hc         1 8Z4       0.034700
     46 H262         0.1730    -0.0580    -2.4110 hc         1 8Z4       0.034700
     47 H22          3.8650    -0.8530    -1.9910 hc         1 8Z4       0.057700
     48 H25          0.2350    -2.4610    -3.0200 ha         1 8Z4       0.101000
     49 H24          1.5500    -3.8450    -1.7190 ha         1 8Z4       0.100000
     50 H231         3.6660    -2.9550    -0.8340 hc         1 8Z4       0.027700
     51 H232         2.4420    -2.3120     0.2680 hc         1 8Z4       0.027700
     52 H21          5.5770     0.6200     2.0680 ha         1 8Z4       0.133000
     53 H5           5.6550    -1.0650    -1.8840 ha         1 8Z4       0.110000
     54 H6           8.1090    -0.9250    -1.9000 ha         1 8Z4       0.124000
     55 H81C        10.0160    -1.5130    -1.2870 h1         1 8Z4      -0.000633
     56 H82C         9.9190     0.1120    -1.9800 h1         1 8Z4      -0.000633
     57 H83C        11.3220    -0.3540    -1.0080 h1         1 8Z4      -0.000633
     58 H20          7.0300     2.6740     2.4880 ha         1 8Z4       0.113000
     59 H11          9.6060    -0.7610     2.4870 ha         1 8Z4       0.113000
     60 H19          8.2310     3.5760     4.4360 ha         1 8Z4       0.124500
     61 H12         10.8110     0.1400     4.4330 ha         1 8Z4       0.124500
     62 H181        12.4740     3.5310     7.2130 h1         1 8Z4       0.033200
     63 H182        11.9210     2.0580     8.0390 h1         1 8Z4       0.033200
     64 H151        12.2440     0.1970     5.2850 h1         1 8Z4       0.027700
     65 H152        12.2170     1.4740     4.0410 h1         1 8Z4       0.027700
     66 H17         13.8500     0.8780     7.4850 h1         1 8Z4       0.006700
     67 HA          15.3240     2.3020     8.0850 ho         1 8Z4       0.391000
     68 H161        14.5610     0.8090     5.1960 hc         1 8Z4       0.034700
     69 H162        14.1790     2.5390     4.9380 hc         1 8Z4       0.034700
@<TRIPOS>BOND
     1     1     2 2   
     2     2     3 1   
     3     2     7 1   
     4     3     4 1   
     5     3    14 1   
     6     4     5 1   
     7     4     6 1   
     8     4    38 1   
     9     5    39 1   
    10     5    40 1   
    11     5    41 1   
    12     6    42 1   
    13     6    43 1   
    14     6    44 1   
    15     7     8 1   
    16     7    12 1   
    17     7    37 1   
    18     8     9 1   
    19     8    45 1   
    20     8    46 1   
    21     9    10 2   
    22     9    48 1   
    23    10    11 1   
    24    10    49 1   
    25    11    12 1   
    26    11    50 1   
    27    11    51 1   
    28    12    13 1   
    29    12    47 1   
    30    13    14 2   
    31    13    15 1   
    32    15    16 ar  
    33    15    22 ar  
    34    16    17 ar  
    35    16    52 1   
    36    17    18 ar  
    37    17    23 1   
    38    18    19 1   
    39    18    21 ar  
    40    19    20 1   
    41    20    55 1   
    42    20    56 1   
    43    20    57 1   
    44    21    22 ar  
    45    21    54 1   
    46    22    53 1   
    47    23    24 ar  
    48    23    28 ar  
    49    24    25 ar  
    50    24    58 1   
    51    25    26 ar  
    52    25    60 1   
    53    26    27 ar  
    54    26    29 1   
    55    27    28 ar  
    56    27    61 1   
    57    28    59 1   
    58    29    30 2   
    59    29    31 1   
    60    31    32 1   
    61    31    36 1   
    62    32    33 1   
    63    32    62 1   
    64    32    63 1   
    65    33    34 1   
    66    33    35 1   
    67    33    66 1   
    68    34    67 1   
    69    35    36 1   
    70    35    68 1   
    71    35    69 1   
    72    36    64 1   
    73    36    65 1   
@<TRIPOS>SUBSTRUCTURE
     1 8Z4         1 TEMP              0 ****  ****    0 ROOT
