@<TRIPOS>MOLECULE
molecule
   15    15     1     0     0
SMALL
bcc


@<TRIPOS>ATOM
      1 C4           0.0000     0.0000     0.0000 ca         1 8Z5      -0.092000
      2 C5           1.3830     0.0000     0.0000 ca         1 8Z5       0.054900
      3 C6           2.0750     0.0000     1.1970 ca         1 8Z5      -0.083000
      4 C3          -0.6900    -0.0000     1.1980 ca         1 8Z5      -0.127000
      5 I            2.4290    -0.0000    -1.8150 i          1 8Z5      -0.164900
      6 C2           0.0020    -0.0060     2.3950 ca         1 8Z5      -0.098000
      7 C1           1.3850    -0.0010     2.3940 ca         1 8Z5      -0.097300
      8 C            2.1390    -0.0020     3.6990 c3         1 8Z5       0.052300
      9 Br           2.4670     1.8520     4.2670 br         1 8Z5      -0.168400
     10 H1          -0.5420     0.0020    -0.9380 ha         1 8Z5       0.144000
     11 H2           3.1580     0.0020     1.1960 ha         1 8Z5       0.146000
     12 H3          -1.7730    -0.0020     1.1990 ha         1 8Z5       0.139000
     13 H4          -0.5390    -0.0060     3.3330 ha         1 8Z5       0.138000
     14 H5           1.5540    -0.5120     4.4540 h1         1 8Z5       0.079200
     15 H6           3.0850    -0.5120     3.5690 h1         1 8Z5       0.079200
@<TRIPOS>BOND
     1     8     7 1
     2     8     9 1
     3     3     7 ar
     4     3     2 ar
     5     7     6 ar
     6     5     2 1
     7     2     1 ar
     8     6     4 ar
     9     1     4 ar
    10     1    10 1
    11     3    11 1
    12     4    12 1
    13     6    13 1
    14     8    14 1
    15     8    15 1
@<TRIPOS>SUBSTRUCTURE
     1 8Z5         1 TEMP              0 ****  ****    0 ROOT
