@<TRIPOS>MOLECULE
8Z7
   49    51     1     0     0
SMALL
bcc


@<TRIPOS>ATOM
      1 C4           0.0000     0.0000     0.0000 c3         1 8Z7      -0.040900
      2 C14         -0.5750    -2.2560     2.9590 c3         1 8Z7       0.213100
      3 C5           1.5310     0.0000     0.0000 c3         1 8Z7       0.028700
      4 C11          6.8580     1.2120    -3.4170 ca         1 8Z7      -0.192300
      5 C7           4.9980     2.3280    -2.3950 ca         1 8Z7      -0.077400
      6 C8           5.7240     3.5120    -2.3730 ca         1 8Z7      -0.106000
      7 C9           7.0090     3.5420    -2.8770 ca         1 8Z7      -0.090000
      8 C10          7.5750     2.3940    -3.3980 ca         1 8Z7      -0.066000
      9 C12          5.5700     1.1770    -2.9200 ca         1 8Z7      -0.046000
     10 N1           0.0020    -1.1750     2.1490 n3         1 8Z7      -0.539600
     11 N2           2.0200     1.1970    -0.6890 ns         1 8Z7      -0.203900
     12 C3          -0.5060    -1.2210     0.7720 c3         1 8Z7       0.152800
     13 N3           3.6930     2.2970    -1.8900 ns         1 8Z7      -0.056100
     14 F3           7.5310    -1.0250    -2.9970 f          1 8Z7      -0.208300
     15 F1           6.7080    -0.4930    -5.0610 f          1 8Z7      -0.208300
     16 F2           8.7750     0.2470    -4.4290 f          1 8Z7      -0.208300
     17 O            3.9390     0.2000    -1.1980 o          1 8Z7      -0.694100
     18 C1           2.0340     0.0000     1.4460 c3         1 8Z7      -0.040900
     19 C2           1.4700    -1.2210     2.1770 c3         1 8Z7       0.152800
     20 C15         -2.0570    -2.0350     3.1100 ca         1 8Z7      -0.092300
     21 C20         -2.5410    -1.2900     4.1700 ca         1 8Z7      -0.091500
     22 C19         -3.9020    -1.0870     4.3080 ca         1 8Z7      -0.101000
     23 C18         -4.7780    -1.6290     3.3870 ca         1 8Z7      -0.101000
     24 C17         -4.2940    -2.3740     2.3270 ca         1 8Z7      -0.101000
     25 C16         -2.9340    -2.5730     2.1870 ca         1 8Z7      -0.091500
     26 H1          -0.3600    -0.0440    -1.0210 hc         1 8Z7       0.026700
     27 H2          -0.3600     0.9030     0.4780 hc         1 8Z7       0.026700
     28 H3          -0.1090    -2.2620     3.9380 h1         1 8Z7       0.013200
     29 H4          -0.3990    -3.2070     2.4710 h1         1 8Z7       0.013200
     30 H5           1.8910    -0.8870    -0.5060 h1         1 8Z7       0.059700
     31 H6           5.2810     4.4120    -1.9650 ha         1 8Z7       0.106000
     32 H7           7.5750     4.4660    -2.8620 ha         1 8Z7       0.109000
     33 H8           8.5850     2.4190    -3.7900 ha         1 8Z7       0.120000
     34 H9           5.0070     0.2520    -2.9360 ha         1 8Z7       0.160000
     35 H11          1.4460     2.0150    -0.7400 hn         1 8Z7       0.167500
     36 H12         -0.1520    -2.1240     0.2880 h1         1 8Z7       0.015700
     37 H13         -1.5890    -1.2130     0.7870 h1         1 8Z7       0.015700
     38 H14          3.0820     3.0770    -2.0320 hn         1 8Z7       0.163500
     39 H15          1.7020     0.9030     1.9430 hc         1 8Z7       0.026700
     40 H16          3.1160    -0.0450     1.4510 hc         1 8Z7       0.026700
     41 H17          1.8100    -2.1240     1.6850 h1         1 8Z7       0.015700
     42 H18          1.8100    -1.2140     3.2050 h1         1 8Z7       0.015700
     43 H19         -1.8540    -0.8650     4.8910 ha         1 8Z7       0.107000
     44 H20         -4.2810    -0.5030     5.1380 ha         1 8Z7       0.102500
     45 H21         -5.8450    -1.4720     3.4960 ha         1 8Z7       0.102000
     46 H22         -4.9810    -2.7980     1.6040 ha         1 8Z7       0.102500
     47 H23         -2.5550    -3.1560     1.3570 ha         1 8Z7       0.107000
     48 C6           3.2430     1.1960    -1.2570 c          1 8Z7       0.566100
     49 C13          7.4790    -0.0370    -3.9860 c3         1 8Z7       0.641200
@<TRIPOS>BOND
     1     1     3 1   
     2     1    12 1   
     3     1    26 1   
     4     1    27 1   
     5     2    10 1   
     6     2    20 1   
     7     2    28 1   
     8     2    29 1   
     9     3    11 1   
    10     3    18 1   
    11     3    30 1   
    12     4     8 ar  
    13     4     9 ar  
    14     4    49 1   
    15     5     6 ar  
    16     5     9 ar  
    17     5    13 1   
    18     6     7 ar  
    19     6    31 1   
    20     7     8 ar  
    21     7    32 1   
    22     8    33 1   
    23     9    34 1   
    24    10    12 1   
    25    10    19 1   
    26    11    35 1   
    27    11    48 1   
    28    12    36 1   
    29    12    37 1   
    30    13    38 1   
    31    13    48 1   
    32    14    49 1   
    33    15    49 1   
    34    16    49 1   
    35    17    48 2   
    36    18    19 1   
    37    18    39 1   
    38    18    40 1   
    39    19    41 1   
    40    19    42 1   
    41    20    21 ar  
    42    20    25 ar  
    43    21    22 ar  
    44    21    43 1   
    45    22    23 ar  
    46    22    44 1   
    47    23    24 ar  
    48    23    45 1   
    49    24    25 ar  
    50    24    46 1   
    51    25    47 1   
@<TRIPOS>SUBSTRUCTURE
     1 8Z7         1 TEMP              0 ****  ****    0 ROOT
