@<TRIPOS>MOLECULE
molecule
   49    51     1     0     0
SMALL
bcc


@<TRIPOS>ATOM
      1 C4           0.0000     0.0000     0.0000 c3         1 8Z7      -0.093900
      2 C14         -0.5750    -2.2560     2.9590 c3         1 8Z7       0.209100
      3 C5           1.5310     0.0000     0.0000 c3         1 8Z7       0.131700
      4 C11          6.8580     1.2120    -3.4170 ca         1 8Z7      -0.165300
      5 C7           4.9980     2.3280    -2.3950 ca         1 8Z7       0.069600
      6 C8           5.7240     3.5120    -2.3730 ca         1 8Z7      -0.138000
      7 C9           7.0090     3.5420    -2.8770 ca         1 8Z7      -0.118000
      8 C10          7.5750     2.3940    -3.3980 ca         1 8Z7      -0.104000
      9 C12          5.5700     1.1770    -2.9200 ca         1 8Z7      -0.080000
     10 N1           0.0020    -1.1750     2.1490 n3         1 8Z7      -0.729600
     11 N2           2.0200     1.1970    -0.6890 ns         1 8Z7      -0.593900
     12 C3          -0.5060    -1.2210     0.7720 c3         1 8Z7       0.163800
     13 N3           3.6930     2.2970    -1.8900 ns         1 8Z7      -0.494100
     14 F3           7.5310    -1.0250    -2.9970 f          1 8Z7      -0.222967
     15 F1           6.7080    -0.4930    -5.0610 f          1 8Z7      -0.222967
     16 F2           8.7750     0.2470    -4.4290 f          1 8Z7      -0.222967
     17 O            3.9390     0.2000    -1.1980 o          1 8Z7      -0.647100
     18 C1           2.0340     0.0000     1.4460 c3         1 8Z7      -0.093900
     19 C2           1.4700    -1.2210     2.1770 c3         1 8Z7       0.163800
     20 C15         -2.0570    -2.0350     3.1100 ca         1 8Z7      -0.082300
     21 C20         -2.5410    -1.2900     4.1700 ca         1 8Z7      -0.117000
     22 C19         -3.9020    -1.0870     4.3080 ca         1 8Z7      -0.129500
     23 C18         -4.7780    -1.6290     3.3870 ca         1 8Z7      -0.127000
     24 C17         -4.2940    -2.3740     2.3270 ca         1 8Z7      -0.129500
     25 C16         -2.9340    -2.5730     2.1870 ca         1 8Z7      -0.117000
     26 H1          -0.3600    -0.0440    -1.0210 hc         1 8Z7       0.056200
     27 H2          -0.3600     0.9030     0.4780 hc         1 8Z7       0.056200
     28 H3          -0.1090    -2.2620     3.9380 h1         1 8Z7       0.041200
     29 H4          -0.3990    -3.2070     2.4710 h1         1 8Z7       0.041200
     30 H5           1.8910    -0.8870    -0.5060 h1         1 8Z7       0.080700
     31 H6           5.2810     4.4120    -1.9650 ha         1 8Z7       0.134000
     32 H7           7.5750     4.4660    -2.8620 ha         1 8Z7       0.139000
     33 H8           8.5850     2.4190    -3.7900 ha         1 8Z7       0.149000
     34 H9           5.0070     0.2520    -2.9360 ha         1 8Z7       0.183000
     35 H11          1.4460     2.0150    -0.7400 hn         1 8Z7       0.308500
     36 H12         -0.1520    -2.1240     0.2880 h1         1 8Z7       0.040450
     37 H13         -1.5890    -1.2130     0.7870 h1         1 8Z7       0.040450
     38 H14          3.0820     3.0770    -2.0320 hn         1 8Z7       0.320500
     39 H15          1.7020     0.9030     1.9430 hc         1 8Z7       0.056200
     40 H16          3.1160    -0.0450     1.4510 hc         1 8Z7       0.056200
     41 H17          1.8100    -2.1240     1.6850 h1         1 8Z7       0.040450
     42 H18          1.8100    -1.2140     3.2050 h1         1 8Z7       0.040450
     43 H19         -1.8540    -0.8650     4.8910 ha         1 8Z7       0.131000
     44 H20         -4.2810    -0.5030     5.1380 ha         1 8Z7       0.129500
     45 H21         -5.8450    -1.4720     3.4960 ha         1 8Z7       0.129000
     46 H22         -4.9810    -2.7980     1.6040 ha         1 8Z7       0.129500
     47 H23         -2.5550    -3.1560     1.3570 ha         1 8Z7       0.131000
     48 C6           3.2430     1.1960    -1.2570 c          1 8Z7       0.781100
     49 C13          7.4790    -0.0370    -3.9860 c3         1 8Z7       0.676200
@<TRIPOS>BOND
     1     2    20 1   
     2     2    10 1   
     3    21    20 ar  
     4    21    22 ar  
     5    20    25 ar  
     6    25    24 ar  
     7    22    23 ar  
     8    24    23 ar  
     9    10    19 1   
    10    10    12 1   
    11    19    18 1   
    12    12     1 1   
    13    18     3 1   
    14     1     3 1   
    15     3    11 1   
    16    11    48 1   
    17    48    17 2   
    18    48    13 1   
    19    13     5 1   
    20     5     9 ar  
    21     5     6 ar  
    22     9     4 ar  
    23     6     7 ar  
    24    14    49 1   
    25     4    49 1   
    26     4     8 ar  
    27    15    49 1   
    28    49    16 1   
    29     7     8 ar  
    30     1    26 1   
    31     1    27 1   
    32     2    28 1   
    33     2    29 1   
    34     3    30 1   
    35     6    31 1   
    36     7    32 1   
    37     8    33 1   
    38     9    34 1   
    39    11    35 1   
    40    12    36 1   
    41    12    37 1   
    42    13    38 1   
    43    18    39 1   
    44    18    40 1   
    45    19    41 1   
    46    19    42 1   
    47    21    43 1   
    48    22    44 1   
    49    23    45 1   
    50    24    46 1   
    51    25    47 1   
@<TRIPOS>SUBSTRUCTURE
     1 8Z7         1 TEMP              0 ****  ****    0 ROOT
