@<TRIPOS>MOLECULE
molecule
   46    50     1     0     0
SMALL
bcc


@<TRIPOS>ATOM
      1 CAA          0.0000     0.0000     0.0000 cc         1 8Z8      -0.263300
      2 CAB          1.3920     0.0000     0.0000 cd         1 8Z8       0.379300
      3 CAD          1.3400     0.0020     2.3690 cd         1 8Z8       0.477500
      4 CAF         -0.6760     0.0080     1.2310 cc         1 8Z8       0.609300
      5 CAI          4.5890     0.7110    -2.4840 c3         1 8Z8       0.144100
      6 CAJ          3.5000     1.7340    -2.1460 c3         1 8Z8      -0.106900
      7 CAK          2.1280     1.0460    -2.2320 c3         1 8Z8       0.254500
      8 CAL         -0.7560    -0.0010    -1.2770 ca         1 8Z8      -0.112000
      9 CAM         -1.2100     1.2010    -1.8230 ca         1 8Z8       0.206400
     10 CAN         -1.9130     1.1950    -3.0130 ca         1 8Z8      -0.229500
     11 CAO         -2.1660    -0.0020    -3.6630 ca         1 8Z8       0.193900
     12 CAP         -1.7180    -1.1960    -3.1260 ca         1 8Z8      -0.229500
     13 CAQ         -1.0090    -1.2010    -1.9400 ca         1 8Z8       0.206400
     14 CAU          2.9990    -1.0520    -1.7110 c3         1 8Z8       0.254500
     15 CAV          4.4360    -0.5210    -1.5870 c3         1 8Z8      -0.106900
     16 CAY          2.0750     0.2570    -3.5600 c3         1 8Z8      -0.087400
     17 CAZ          2.6520    -1.1320    -3.2160 c3         1 8Z8      -0.087400
     18 CBB          3.4560    -0.0100     2.8620 cc         1 8Z8       0.591200
     19 FAR         -2.8550    -0.0020    -4.8260 f          1 8Z8      -0.123900
     20 FAS         -0.9640     2.3690    -1.1880 f          1 8Z8      -0.118400
     21 FAT         -0.5680    -2.3680    -1.4200 f          1 8Z8      -0.118400
     22 NAC          2.0450     0.0000     1.1980 na         1 8Z8      -0.010800
     23 NAE          0.0010     0.0080     2.3600 nd         1 8Z8      -0.682000
     24 NAH          2.0940    -0.0010    -1.1820 nh         1 8Z8      -0.769000
     25 NBA          3.4010    -0.0070     1.5520 nd         1 8Z8      -0.617100
     26 NBC          2.2260     0.0020     3.3590 nc         1 8Z8      -0.440300
     27 Cl1         -2.4120     0.0160     1.2650 cl         1 8Z8      -0.117000
     28 H1           5.5640     1.1550    -2.3240 h1         1 8Z8       0.042700
     29 H2           3.6560     2.1110    -1.1430 hc         1 8Z8       0.064450
     30 H3           3.5400     2.5540    -2.8530 hc         1 8Z8       0.064450
     31 H4           1.3090     1.7480    -2.1370 h1         1 8Z8       0.070700
     32 H5          -2.2660     2.1260    -3.4380 ha         1 8Z8       0.168000
     33 H6          -1.9180    -2.1290    -3.6410 ha         1 8Z8       0.168000
     34 H7           2.8640    -2.0020    -1.2070 h1         1 8Z8       0.070700
     35 H8           4.6340    -0.2480    -0.5580 hc         1 8Z8       0.064450
     36 H9           5.1340    -1.2880    -1.9000 hc         1 8Z8       0.064450
     37 H10          4.9530     2.1740    -4.6090 h1         1 8Z8       0.031700
     38 H11          4.9770     0.8460    -5.7780 h1         1 8Z8       0.031700
     39 H12          6.2700     0.9930    -4.5800 h1         1 8Z8       0.031700
     40 H13          2.6850     0.7430    -4.3120 hc         1 8Z8       0.062200
     41 H14          1.0520     0.1670    -3.9040 hc         1 8Z8       0.062200
     42 H15          3.5440    -1.3250    -3.7990 hc         1 8Z8       0.062200
     43 H16          1.9100    -1.9020    -3.3920 hc         1 8Z8       0.062200
     44 H17          4.3670    -0.0210     3.4480 h5         1 8Z8       0.092800
     45 OAW          4.4630     0.3200    -3.8530 os         1 8Z8      -0.425600
     46 CAX          5.2110     1.1320    -4.7600 c3         1 8Z8       0.113700
@<TRIPOS>BOND
     1    18    26 1   
     2    18    25 2   
     3    26     3 2   
     4    25    22 1   
     5    16    17 1   
     6    16     7 1   
     7     3    22 1   
     8     3    23 1   
     9    22     2 1   
    10    17    14 1   
    11     7    24 1   
    12     7     6 1   
    13    23     4 2   
    14     2    24 1   
    15     2     1 2   
    16    24    14 1   
    17     6     5 1   
    18    45     5 1   
    19    45    46 1   
    20    14    15 1   
    21     4     1 1   
    22     4    27 1   
    23     1     8 1   
    24     5    15 1   
    25    21    13 1   
    26     8    13 ar  
    27     8     9 ar  
    28    13    12 ar  
    29    20     9 1   
    30     9    10 ar  
    31    12    11 ar  
    32    10    11 ar  
    33    11    19 1   
    34     5    28 1   
    35     6    29 1   
    36     6    30 1   
    37     7    31 1   
    38    10    32 1   
    39    12    33 1   
    40    14    34 1   
    41    15    35 1   
    42    15    36 1   
    43    46    37 1   
    44    46    38 1   
    45    46    39 1   
    46    16    40 1   
    47    16    41 1   
    48    17    42 1   
    49    17    43 1   
    50    18    44 1   
@<TRIPOS>SUBSTRUCTURE
     1 8Z8         1 TEMP              0 ****  ****    0 ROOT
