@<TRIPOS>MOLECULE
8Z8
   46    50     1     0     0
SMALL
bcc


@<TRIPOS>ATOM
      1 CAA          0.0000     0.0000     0.0000 cc         1 8Z8      -0.227300
      2 CAB          1.3920     0.0000     0.0000 cd         1 8Z8       0.076300
      3 CAD          1.3400     0.0020     2.3690 cd         1 8Z8       0.243500
      4 CAF         -0.6760     0.0080     1.2310 cc         1 8Z8       0.451300
      5 CAI          4.5890     0.7110    -2.4840 c3         1 8Z8       0.184100
      6 CAJ          3.5000     1.7340    -2.1460 c3         1 8Z8      -0.065900
      7 CAK          2.1280     1.0460    -2.2320 c3         1 8Z8       0.176500
      8 CAL         -0.7560    -0.0010    -1.2770 ca         1 8Z8      -0.094000
      9 CAM         -1.2100     1.2010    -1.8230 ca         1 8Z8       0.178900
     10 CAN         -1.9130     1.1950    -3.0130 ca         1 8Z8      -0.181000
     11 CAO         -2.1660    -0.0020    -3.6630 ca         1 8Z8       0.168900
     12 CAP         -1.7180    -1.1960    -3.1260 ca         1 8Z8      -0.181000
     13 CAQ         -1.0090    -1.2010    -1.9400 ca         1 8Z8       0.178900
     14 CAU          2.9990    -1.0520    -1.7110 c3         1 8Z8       0.176500
     15 CAV          4.4360    -0.5210    -1.5870 c3         1 8Z8      -0.065900
     16 CAY          2.0750     0.2570    -3.5600 c3         1 8Z8      -0.054900
     17 CAZ          2.6520    -1.1320    -3.2160 c3         1 8Z8      -0.054900
     18 CBB          3.4560    -0.0100     2.8620 cc         1 8Z8       0.638200
     19 FAR         -2.8550    -0.0020    -4.8260 f          1 8Z8      -0.116900
     20 FAS         -0.9640     2.3690    -1.1880 f          1 8Z8      -0.115400
     21 FAT         -0.5680    -2.3680    -1.4200 f          1 8Z8      -0.115400
     22 NAC          2.0450     0.0000     1.1980 na         1 8Z8       0.462200
     23 NAE          0.0010     0.0080     2.3600 nd         1 8Z8      -0.531000
     24 NAH          2.0940    -0.0010    -1.1820 nh         1 8Z8      -0.435000
     25 NBA          3.4010    -0.0070     1.5520 nd         1 8Z8      -0.778100
     26 NBC          2.2260     0.0020     3.3590 nc         1 8Z8      -0.390300
     27 Cl1         -2.4120     0.0160     1.2650 cl         1 8Z8      -0.047000
     28 H1           5.5640     1.1550    -2.3240 h1         1 8Z8       0.012700
     29 H2           3.6560     2.1110    -1.1430 hc         1 8Z8       0.037950
     30 H3           3.5400     2.5540    -2.8530 hc         1 8Z8       0.037950
     31 H4           1.3090     1.7480    -2.1370 h1         1 8Z8       0.039700
     32 H5          -2.2660     2.1260    -3.4380 ha         1 8Z8       0.143000
     33 H6          -1.9180    -2.1290    -3.6410 ha         1 8Z8       0.143000
     34 H7           2.8640    -2.0020    -1.2070 h1         1 8Z8       0.039700
     35 H8           4.6340    -0.2480    -0.5580 hc         1 8Z8       0.037950
     36 H9           5.1340    -1.2880    -1.9000 hc         1 8Z8       0.037950
     37 H10          4.9530     2.1740    -4.6090 h1         1 8Z8      -0.009300
     38 H11          4.9770     0.8460    -5.7780 h1         1 8Z8      -0.009300
     39 H12          6.2700     0.9930    -4.5800 h1         1 8Z8      -0.009300
     40 H13          2.6850     0.7430    -4.3120 hc         1 8Z8       0.038700
     41 H14          1.0520     0.1670    -3.9040 hc         1 8Z8       0.038700
     42 H15          3.5440    -1.3250    -3.7990 hc         1 8Z8       0.038700
     43 H16          1.9100    -1.9020    -3.3920 hc         1 8Z8       0.038700
     44 H17          4.3670    -0.0210     3.4480 h5         1 8Z8       0.031800
     45 OAW          4.4630     0.3200    -3.8530 os         1 8Z8      -0.402600
     46 CAX          5.2110     1.1320    -4.7600 c3         1 8Z8       0.229700
@<TRIPOS>BOND
     1     1     2 2   
     2     1     4 1   
     3     1     8 1   
     4     2    22 1   
     5     2    24 1   
     6     3    22 1   
     7     3    23 1   
     8     3    26 2   
     9     4    23 2   
    10     4    27 1   
    11     5     6 1   
    12     5    15 1   
    13     5    28 1   
    14     5    45 1   
    15     6     7 1   
    16     6    29 1   
    17     6    30 1   
    18     7    16 1   
    19     7    24 1   
    20     7    31 1   
    21     8     9 ar  
    22     8    13 ar  
    23     9    10 ar  
    24     9    20 1   
    25    10    11 ar  
    26    10    32 1   
    27    11    12 ar  
    28    11    19 1   
    29    12    13 ar  
    30    12    33 1   
    31    13    21 1   
    32    14    15 1   
    33    14    17 1   
    34    14    24 1   
    35    14    34 1   
    36    15    35 1   
    37    15    36 1   
    38    16    17 1   
    39    16    40 1   
    40    16    41 1   
    41    17    42 1   
    42    17    43 1   
    43    18    25 2   
    44    18    26 1   
    45    18    44 1   
    46    22    25 1   
    47    37    46 1   
    48    38    46 1   
    49    39    46 1   
    50    45    46 1   
@<TRIPOS>SUBSTRUCTURE
     1 8Z8         1 TEMP              0 ****  ****    0 ROOT
