@<TRIPOS>MOLECULE
8ZA
   58    60     1     0     0
SMALL
bcc


@<TRIPOS>ATOM
      1 C4           0.0000     0.0000     0.0000 c3         1 8ZA       0.152800
      2 C14          4.8920     5.6500     4.9660 ca         1 8ZA      -0.091000
      3 C5           2.4210     0.0000     0.0000 c3         1 8ZA       0.160300
      4 C6           3.6550     0.0000     0.9050 c3         1 8ZA      -0.066900
      5 C11          5.5370     3.4890     3.3670 ca         1 8ZA      -0.133300
      6 C7           3.6990     1.3080     1.7000 c3         1 8ZA       0.057700
      7 C8           2.4060     1.4490     2.5090 c3         1 8ZA      -0.066900
      8 C9           1.2080     1.4060     1.5570 c3         1 8ZA       0.160300
      9 C10          5.8900     2.3110     2.4950 c3         1 8ZA       0.104300
     10 C12          4.7950     4.5340     2.8500 ca         1 8ZA      -0.090000
     11 C13          4.4690     5.6130     3.6510 ca         1 8ZA      -0.094000
     12 N1           1.2100     0.1360     0.8200 n3         1 8ZA      -0.530600
     13 N2           4.8460     1.2890     2.6110 n          1 8ZA      -0.161800
     14 C3          -1.2250    -0.1030     0.9110 c3         1 8ZA      -0.039400
     15 N3           5.9970     0.3150     4.3920 ns         1 8ZA      -0.079100
     16 C1          -3.7110    -0.3460     0.9660 c3         1 8ZA       0.006900
     17 C2          -2.4860    -0.2440     0.0560 c3         1 8ZA      -0.027400
     18 C15          5.6450     4.6100     5.4800 ca         1 8ZA      -0.094000
     19 C16          5.9670     3.5300     4.6810 ca         1 8ZA      -0.090000
     20 C17          4.9420     0.3330     3.5550 c          1 8ZA       0.588100
     21 O            4.0760    -0.5160     3.6500 o          1 8ZA      -0.684100
     22 C18          6.1460    -0.7320     5.3090 ca         1 8ZA      -0.059400
     23 C23          5.0270    -1.3070     5.8960 ca         1 8ZA      -0.091000
     24 C22          5.1770    -2.3420     6.8010 ca         1 8ZA      -0.020600
     25 Cl2          3.7790    -3.0600     7.5360 cl         1 8ZA      -0.001400
     26 C21          6.4430    -2.8040     7.1220 ca         1 8ZA      -0.057600
     27 Cl1          6.6280    -4.1040     8.2580 cl         1 8ZA      -0.010400
     28 C20          7.5590    -2.2330     6.5370 ca         1 8ZA      -0.072000
     29 C19          7.4140    -1.2020     5.6280 ca         1 8ZA      -0.135000
     30 H1          -0.1000     0.8660    -0.6430 h1         1 8ZA       0.006700
     31 H2           0.0740    -0.8940    -0.6080 h1         1 8ZA       0.006700
     32 H4           2.3790    -0.9320    -0.5510 h1         1 8ZA       0.006950
     33 H5           2.4820     0.8320    -0.6910 h1         1 8ZA       0.006950
     34 H6           3.6000    -0.8370     1.5910 hc         1 8ZA       0.044950
     35 H7           4.5480    -0.0820     0.2970 hc         1 8ZA       0.044950
     36 H8           3.7880     2.1430     1.0150 h1         1 8ZA       0.025700
     37 H9           2.3330     0.6330     3.2170 hc         1 8ZA       0.044950
     38 H10          2.4130     2.3950     3.0370 hc         1 8ZA       0.044950
     39 H11          0.2920     1.4880     2.1290 h1         1 8ZA       0.006950
     40 H12          1.2770     2.2290     0.8550 h1         1 8ZA       0.006950
     41 H13          5.9660     2.6350     1.4640 h1         1 8ZA       0.027700
     42 H14          6.8380     1.8970     2.8150 h1         1 8ZA       0.027700
     43 H15          4.4640     4.5050     1.8190 ha         1 8ZA       0.104000
     44 H16          3.8830     6.4300     3.2470 ha         1 8ZA       0.106000
     45 H18         -1.1260    -0.9690     1.5530 hc         1 8ZA       0.025200
     46 H19         -1.3000     0.7910     1.5190 hc         1 8ZA       0.025200
     47 H20          6.6920     1.0330     4.3360 hn         1 8ZA       0.181500
     48 H21         -3.7830     0.5450     1.5770 hc         1 8ZA       0.000700
     49 H22         -4.6040    -0.4420     0.3600 hc         1 8ZA       0.000700
     50 H23         -3.6140    -1.2160     1.6050 hc         1 8ZA       0.000700
     51 H24         -2.5850     0.6230    -0.5870 hc         1 8ZA       0.010700
     52 H25         -2.4120    -1.1370    -0.5520 hc         1 8ZA       0.010700
     53 H26          5.9790     4.6410     6.5100 ha         1 8ZA       0.106000
     54 H27          6.5570     2.7150     5.0830 ha         1 8ZA       0.104000
     55 H28          4.0420    -0.9040     5.6930 ha         1 8ZA       0.160000
     56 H29          8.5470    -2.5980     6.7870 ha         1 8ZA       0.115000
     57 H30          8.2880    -0.7560     5.1700 ha         1 8ZA       0.107000
     58 H3           4.6370     6.4960     5.5930 ha         1 8ZA       0.105000
@<TRIPOS>BOND
     1     1    12 1   
     2     1    14 1   
     3     1    30 1   
     4     1    31 1   
     5     2    11 ar  
     6     2    18 ar  
     7     2    58 1   
     8     3     4 1   
     9     3    12 1   
    10     3    32 1   
    11     3    33 1   
    12     4     6 1   
    13     4    34 1   
    14     4    35 1   
    15     5     9 1   
    16     5    10 ar  
    17     5    19 ar  
    18     6     7 1   
    19     6    13 1   
    20     6    36 1   
    21     7     8 1   
    22     7    37 1   
    23     7    38 1   
    24     8    12 1   
    25     8    39 1   
    26     8    40 1   
    27     9    13 1   
    28     9    41 1   
    29     9    42 1   
    30    10    11 ar  
    31    10    43 1   
    32    11    44 1   
    33    13    20 1   
    34    14    17 1   
    35    14    45 1   
    36    14    46 1   
    37    15    20 1   
    38    15    22 1   
    39    15    47 1   
    40    16    17 1   
    41    16    48 1   
    42    16    49 1   
    43    16    50 1   
    44    17    51 1   
    45    17    52 1   
    46    18    19 ar  
    47    18    53 1   
    48    19    54 1   
    49    20    21 2   
    50    22    23 ar  
    51    22    29 ar  
    52    23    24 ar  
    53    23    55 1   
    54    24    25 1   
    55    24    26 ar  
    56    26    27 1   
    57    26    28 ar  
    58    28    29 ar  
    59    28    56 1   
    60    29    57 1   
@<TRIPOS>SUBSTRUCTURE
     1 8ZA         1 TEMP              0 ****  ****    0 ROOT
