@<TRIPOS>MOLECULE
molecule
   37    39     1     0     0
SMALL
bcc


@<TRIPOS>ATOM
      1 C24          0.0000     0.0000     0.0000 c3         1 8ZB      -0.093100
      2 C28          1.5300     0.0000     0.0000 c3         1 8ZB      -0.083400
      3 C31          2.0400     0.0000     1.4430 c3         1 8ZB      -0.076400
      4 C36          3.5700    -0.0000     1.4430 c3         1 8ZB       0.129100
      5 C38          5.4280     1.3490     1.4650 c3         1 8ZB       0.256800
      6 C39          5.3580     0.7820     2.9000 c3         1 8ZB       0.087100
      7 C40          4.1080    -0.1260     2.8850 c3         1 8ZB       0.091100
      8 C49          5.0840     3.8490     1.4890 cc         1 8ZB       0.428700
      9 C50          7.1270     4.5760     1.5210 ca         1 8ZB      -0.213200
     10 C51          7.1830     3.1720     1.5150 ca         1 8ZB       0.477800
     11 C53          9.4790     3.2810     1.5570 ca         1 8ZB       0.740900
     12 C55          8.3390     5.2880     1.5480 ca         1 8ZB       0.788200
     13 N47          5.8800     2.7420     1.4890 na         1 8ZB      -0.254000
     14 N48          5.8180     4.9240     1.5080 nd         1 8ZB      -0.590100
     15 N52          8.3690     2.5730     1.5320 nb         1 8ZB      -0.788000
     16 N54          9.4760     4.6010     1.5640 nb         1 8ZB      -0.837000
     17 N57          8.3460     6.6720     1.5560 nv         1 8ZB      -0.984500
     18 O37          4.0730     1.2680     0.9700 os         1 8ZB      -0.415600
     19 O41          6.5280     0.0170     3.1940 oh         1 8ZB      -0.560800
     20 O42          4.4680    -1.4800     3.1690 oh         1 8ZB      -0.571800
     21 H2          -0.3610    -0.8860     0.5080 hc         1 8ZB       0.034367
     22 H1          -0.3610     0.8830     0.5130 hc         1 8ZB       0.034367
     23 H29         -0.3610     0.0030    -1.0210 hc         1 8ZB       0.034367
     24 H28          1.8910    -0.8850    -0.5110 hc         1 8ZB       0.050700
     25 H33          1.8910     0.8850    -0.5110 hc         1 8ZB       0.050700
     26 H35          1.6790    -0.8850     1.9530 hc         1 8ZB       0.052700
     27 H31          1.6790     0.8850     1.9530 hc         1 8ZB       0.052700
     28 H61          3.9530    -0.8060     0.8290 h1         1 8ZB       0.079700
     29 H62          6.0860     0.7430     0.8540 h2         1 8ZB       0.111700
     30 H44          5.2320     1.5850     3.6170 h1         1 8ZB       0.055700
     31 H43          3.3720     0.2330     3.5950 h1         1 8ZB       0.048700
     32 H58          4.0010     3.8360     1.4740 h5         1 8ZB       0.087800
     33 H56         10.4290     2.7610     1.5700 h5         1 8ZB       0.062100
     34 H60          7.4830     7.1770     1.5270 hn         1 8ZB       0.450300
     35 H59          9.2150     7.1670     1.5870 hn         1 8ZB       0.450300
     36 H46          6.7990     0.1840     4.0820 ho         1 8ZB       0.408000
     37 H45          4.0730    -1.7470     3.9820 ho         1 8ZB       0.403000
@<TRIPOS>BOND
     1    17    12 1   
     2    12     9 ar  
     3    12    16 ar  
     4    14     9 1   
     5    14     8 2   
     6     9    10 ar  
     7    16    11 ar  
     8     8    13 1   
     9    10    13 1   
    10    10    15 ar  
    11    11    15 ar  
    12    13     5 1   
    13     5     6 1   
    14     5    18 1   
    15     6    19 1   
    16     6     7 1   
    17    18     4 1   
    18     3     4 1   
    19     3     2 1   
    20     1     2 1   
    21     4     7 1   
    22     7    20 1   
    23     1    21 1   
    24     1    22 1   
    25     1    23 1   
    26     2    24 1   
    27     2    25 1   
    28     3    26 1   
    29     3    27 1   
    30     4    28 1   
    31     5    29 1   
    32     6    30 1   
    33     7    31 1   
    34     8    32 1   
    35    11    33 1   
    36    17    34 1   
    37    17    35 1   
    38    19    36 1   
    39    20    37 1   
@<TRIPOS>SUBSTRUCTURE
     1 8ZB         1 TEMP              0 ****  ****    0 ROOT
