@<TRIPOS>MOLECULE
molecule
   74    76     1     0     0
SMALL
bcc


@<TRIPOS>ATOM
      1 FBI          0.0000     0.0000     0.0000 f          1 8ZD      -0.225300
      2 CBH          1.3990     0.0000     0.0000 c3         1 8ZD       0.674200
      3 FBJ          1.8660     0.0000     1.3190 f          1 8ZD      -0.225300
      4 FBK          1.8650    -1.1430    -0.6590 f          1 8ZD      -0.225300
      5 CBF          1.9020     1.2300    -0.7110 ca         1 8ZD      -0.159300
      6 CBG          3.2600     1.4440    -0.8420 ca         1 8ZD      -0.134000
      7 CBE          1.0030     2.1390    -1.2370 ca         1 8ZD      -0.116000
      8 CBD          1.4610     3.2690    -1.8900 ca         1 8ZD      -0.114000
      9 CBC          2.8170     3.4910    -2.0200 ca         1 8ZD      -0.148000
     10 CBB          3.7220     2.5770    -1.4980 ca         1 8ZD       0.069600
     11 NBA          5.0980     2.7980    -1.6310 ns         1 8ZD      -0.491100
     12 CAY          5.5460     3.8350    -2.3670 c          1 8ZD       0.799100
     13 OAZ          4.7580     4.6290    -2.8400 o          1 8ZD      -0.656100
     14 NAL          6.8680     3.9890    -2.5780 n          1 8ZD      -0.494800
     15 CAI          7.8110     2.9790    -2.0910 c3         1 8ZD       0.102700
     16 CAJ          7.4020     1.6010    -2.6170 c3         1 8ZD      -0.111400
     17 CAK          8.3540     0.5430    -2.0550 c3         1 8ZD       0.157800
     18 CAH          7.7940     2.9610    -0.5600 c3         1 8ZD      -0.111400
     19 CAG          8.7340     1.8630    -0.0580 c3         1 8ZD       0.157800
     20 NAF          8.2990     0.5630    -0.5880 n3         1 8ZD      -0.730600
     21 CAD          9.0960    -0.5310    -0.0160 c3         1 8ZD       0.168500
     22 CAE         10.5510    -0.3910    -0.4650 c3         1 8ZD      -0.135100
     23 CAC          8.5410    -1.8730    -0.5000 c3         1 8ZD      -0.078400
     24 CAB          7.0880    -2.0190    -0.0420 c3         1 8ZD      -0.077400
     25 CAA          6.5720    -3.4090    -0.4170 c3         1 8ZD      -0.095100
     26 CAM          7.3620     5.1680    -3.2950 c3         1 8ZD       0.175300
     27 CAN          7.7580     6.2300    -2.3030 ca         1 8ZD      -0.155300
     28 CAO          6.8660     7.2300    -1.9670 ca         1 8ZD      -0.085000
     29 CAP          7.2290     8.2050    -1.0570 ca         1 8ZD      -0.148000
     30 CAQ          8.4860     8.1830    -0.4790 ca         1 8ZD      -0.104000
     31 CAR          9.3820     7.1860    -0.8100 ca         1 8ZD      -0.131000
     32 CAS          9.0180     6.2020    -1.7200 ca         1 8ZD       0.063600
     33 NAT          9.9230     5.1890    -2.0570 ns         1 8ZD      -0.486100
     34 CAU         10.7790     4.7130    -1.1290 c          1 8ZD       0.652100
     35 OAV         10.6990     5.0940     0.0200 o          1 8ZD      -0.587100
     36 CAW         11.8310     3.7100    -1.5200 c3         1 8ZD      -0.162400
     37 CAX         12.6620     3.3370    -0.2910 c3         1 8ZD      -0.079100
     38 H1           3.9640     0.7290    -0.4340 ha         1 8ZD       0.142000
     39 H2          -0.0620     1.9670    -1.1360 ha         1 8ZD       0.146000
     40 H3           0.7540     3.9810    -2.2990 ha         1 8ZD       0.140000
     41 H4           3.1740     4.3770    -2.5310 ha         1 8ZD       0.216000
     42 H5           5.7470     2.2210    -1.1330 hn         1 8ZD       0.353500
     43 H6           8.8100     3.2140    -2.4370 h1         1 8ZD       0.057700
     44 H7           7.4570     1.5970    -3.6990 hc         1 8ZD       0.066700
     45 H8           6.3900     1.3800    -2.3000 hc         1 8ZD       0.066700
     46 H9           9.3650     0.7590    -2.3800 h1         1 8ZD       0.042200
     47 H10          8.0560    -0.4350    -2.4130 h1         1 8ZD       0.042200
     48 H11          6.7870     2.7600    -0.2120 hc         1 8ZD       0.066700
     49 H12          8.1270     3.9200    -0.1830 hc         1 8ZD       0.066700
     50 H13          9.7420     2.0700    -0.3960 h1         1 8ZD       0.042200
     51 H14          8.7100     1.8360     1.0250 h1         1 8ZD       0.042200
     52 H16          9.0450    -0.4880     1.0650 h1         1 8ZD       0.068700
     53 H17         10.5940    -0.3590    -1.5470 hc         1 8ZD       0.039700
     54 H18         11.1230    -1.2380    -0.1060 hc         1 8ZD       0.039700
     55 H19         10.9680     0.5240    -0.0600 hc         1 8ZD       0.039700
     56 H20          8.5840    -1.9120    -1.5820 hc         1 8ZD       0.043700
     57 H21          9.1330    -2.6790    -0.0860 hc         1 8ZD       0.043700
     58 H22          6.4790    -1.2650    -0.5270 hc         1 8ZD       0.047700
     59 H23          7.0340    -1.8910     1.0320 hc         1 8ZD       0.047700
     60 H24          5.5770    -3.5460    -0.0130 hc         1 8ZD       0.033033
     61 H25          7.2340    -4.1620    -0.0080 hc         1 8ZD       0.033033
     62 H26          6.5410    -3.5040    -1.4960 hc         1 8ZD       0.033033
     63 H27          8.2230     4.8920    -3.8920 h1         1 8ZD       0.063200
     64 H28          6.5820     5.5510    -3.9420 h1         1 8ZD       0.063200
     65 H29          5.8820     7.2500    -2.4180 ha         1 8ZD       0.149000
     66 H30          6.5270     8.9880    -0.7960 ha         1 8ZD       0.134000
     67 H31          8.7680     8.9490     0.2320 ha         1 8ZD       0.135000
     68 H32         10.3650     7.1680    -0.3560 ha         1 8ZD       0.158000
     69 H33          9.8720     4.7540    -2.9570 hn         1 8ZD       0.322500
     70 H34         12.4780     4.1400    -2.2760 hc         1 8ZD       0.060200
     71 H35         11.3540     2.8220    -1.9170 hc         1 8ZD       0.060200
     72 H36         13.3070     4.1660    -0.0260 hc         1 8ZD       0.046700
     73 H37         13.2660     2.4660    -0.5130 hc         1 8ZD       0.046700
     74 H38         12.0000     3.1150     0.5380 hc         1 8ZD       0.046700
@<TRIPOS>BOND
     1    22    21 1
     2    24    25 1
     3    24    23 1
     4    21    23 1
     5    21    20 1
     6    20    17 1
     7    20    19 1
     8    35    34 2
     9    17    16 1
    10    19    18 1
    11    34    36 1
    12    34    33 1
    13    36    37 1
    14    16    15 1
    15    31    30 ar
    16    31    32 ar
    17    30    29 ar
    18    18    15 1
    19    33    32 1
    20    32    27 ar
    21    29    28 ar
    22    15    14 1
    23    27    28 ar
    24    27    26 1
    25    26    14 1
    26    14    12 1
    27    12    13 2
    28    12    11 1
    29    11    10 1
    30    10     6 ar
    31    10     9 ar
    32     6     5 ar
    33     9     8 ar
    34     5     2 1
    35     5     7 ar
    36     1     2 1
    37     3     2 1
    38     8     7 ar
    39     2     4 1
    40     6    38 1
    41     7    39 1
    42     8    40 1
    43     9    41 1
    44    11    42 1
    45    15    43 1
    46    16    44 1
    47    16    45 1
    48    17    46 1
    49    17    47 1
    50    18    48 1
    51    18    49 1
    52    19    50 1
    53    19    51 1
    54    21    52 1
    55    22    53 1
    56    22    54 1
    57    22    55 1
    58    23    56 1
    59    23    57 1
    60    24    58 1
    61    24    59 1
    62    25    60 1
    63    25    61 1
    64    25    62 1
    65    26    63 1
    66    26    64 1
    67    28    65 1
    68    29    66 1
    69    30    67 1
    70    31    68 1
    71    33    69 1
    72    36    70 1
    73    36    71 1
    74    37    72 1
    75    37    73 1
    76    37    74 1
@<TRIPOS>SUBSTRUCTURE
     1 8ZD         1 TEMP              0 ****  ****    0 ROOT
