@<TRIPOS>MOLECULE
8ZD
   74    76     1     0     0
SMALL
bcc


@<TRIPOS>ATOM
      1 FBI          0.0000     0.0000     0.0000 f          1 8ZD      -0.209967
      2 CBH          1.3990     0.0000     0.0000 c3         1 8ZD       0.640200
      3 FBJ          1.8660     0.0000     1.3190 f          1 8ZD      -0.209967
      4 FBK          1.8650    -1.1430    -0.6590 f          1 8ZD      -0.209967
      5 CBF          1.9020     1.2300    -0.7110 ca         1 8ZD      -0.187300
      6 CBG          3.2600     1.4440    -0.8420 ca         1 8ZD      -0.097000
      7 CBE          1.0030     2.1390    -1.2370 ca         1 8ZD      -0.080000
      8 CBD          1.4610     3.2690    -1.8900 ca         1 8ZD      -0.079000
      9 CBC          2.8170     3.4910    -2.0200 ca         1 8ZD      -0.147000
     10 CBB          3.7220     2.5770    -1.4980 ca         1 8ZD      -0.069400
     11 NBA          5.0980     2.7980    -1.6310 ns         1 8ZD      -0.088100
     12 CAY          5.5460     3.8350    -2.3670 c          1 8ZD       0.604100
     13 OAZ          4.7580     4.6290    -2.8400 o          1 8ZD      -0.697100
     14 NAL          6.8680     3.9890    -2.5780 n          1 8ZD      -0.161800
     15 CAI          7.8110     2.9790    -2.0910 c3         1 8ZD       0.006700
     16 CAJ          7.4020     1.6010    -2.6170 c3         1 8ZD      -0.073400
     17 CAK          8.3540     0.5430    -2.0550 c3         1 8ZD       0.143300
     18 CAH          7.7940     2.9610    -0.5600 c3         1 8ZD      -0.073400
     19 CAG          8.7340     1.8630    -0.0580 c3         1 8ZD       0.143300
     20 NAF          8.2990     0.5630    -0.5880 n3         1 8ZD      -0.541600
     21 CAD          9.0960    -0.5310    -0.0160 c3         1 8ZD       0.132500
     22 CAE         10.5510    -0.3910    -0.4650 c3         1 8ZD      -0.052100
     23 CAC          8.5410    -1.8730    -0.5000 c3         1 8ZD      -0.036400
     24 CAB          7.0880    -2.0190    -0.0420 c3         1 8ZD      -0.028400
     25 CAA          6.5720    -3.4090    -0.4170 c3         1 8ZD       0.003900
     26 CAM          7.3620     5.1680    -3.2950 c3         1 8ZD       0.125300
     27 CAN          7.7580     6.2300    -2.3030 ca         1 8ZD      -0.162300
     28 CAO          6.8660     7.2300    -1.9670 ca         1 8ZD      -0.057000
     29 CAP          7.2290     8.2050    -1.0570 ca         1 8ZD      -0.116000
     30 CAQ          8.4860     8.1830    -0.4790 ca         1 8ZD      -0.074000
     31 CAR          9.3820     7.1860    -0.8100 ca         1 8ZD      -0.105000
     32 CAS          9.0180     6.2020    -1.7200 ca         1 8ZD      -0.076400
     33 NAT          9.9230     5.1890    -2.0570 ns         1 8ZD      -0.059100
     34 CAU         10.7790     4.7130    -1.1290 c          1 8ZD       0.556100
     35 OAV         10.6990     5.0940     0.0200 o          1 8ZD      -0.623100
     36 CAW         11.8310     3.7100    -1.5200 c3         1 8ZD      -0.103400
     37 CAX         12.6620     3.3370    -0.2910 c3         1 8ZD       0.015900
     38 H1           3.9640     0.7290    -0.4340 ha         1 8ZD       0.117000
     39 H2          -0.0620     1.9670    -1.1360 ha         1 8ZD       0.119000
     40 H3           0.7540     3.9810    -2.2990 ha         1 8ZD       0.109000
     41 H4           3.1740     4.3770    -2.5310 ha         1 8ZD       0.207000
     42 H5           5.7470     2.2210    -1.1330 hn         1 8ZD       0.221500
     43 H6           8.8100     3.2140    -2.4370 h1         1 8ZD       0.038700
     44 H7           7.4570     1.5970    -3.6990 hc         1 8ZD       0.041450
     45 H8           6.3900     1.3800    -2.3000 hc         1 8ZD       0.041450
     46 H9           9.3650     0.7590    -2.3800 h1         1 8ZD       0.022200
     47 H10          8.0560    -0.4350    -2.4130 h1         1 8ZD       0.022200
     48 H11          6.7870     2.7600    -0.2120 hc         1 8ZD       0.041450
     49 H12          8.1270     3.9200    -0.1830 hc         1 8ZD       0.041450
     50 H13          9.7420     2.0700    -0.3960 h1         1 8ZD       0.022200
     51 H14          8.7100     1.8360     1.0250 h1         1 8ZD       0.022200
     52 H16          9.0450    -0.4880     1.0650 h1         1 8ZD       0.041700
     53 H17         10.5940    -0.3590    -1.5470 hc         1 8ZD       0.014367
     54 H18         11.1230    -1.2380    -0.1060 hc         1 8ZD       0.014367
     55 H19         10.9680     0.5240    -0.0600 hc         1 8ZD       0.014367
     56 H20          8.5840    -1.9120    -1.5820 hc         1 8ZD       0.021200
     57 H21          9.1330    -2.6790    -0.0860 hc         1 8ZD       0.021200
     58 H22          6.4790    -1.2650    -0.5270 hc         1 8ZD       0.019200
     59 H23          7.0340    -1.8910     1.0320 hc         1 8ZD       0.019200
     60 H24          5.5770    -3.5460    -0.0130 hc         1 8ZD       0.001033
     61 H25          7.2340    -4.1620    -0.0080 hc         1 8ZD       0.001033
     62 H26          6.5410    -3.5040    -1.4960 hc         1 8ZD       0.001033
     63 H27          8.2230     4.8920    -3.8920 h1         1 8ZD       0.036200
     64 H28          6.5820     5.5510    -3.9420 h1         1 8ZD       0.036200
     65 H29          5.8820     7.2500    -2.4180 ha         1 8ZD       0.123000
     66 H30          6.5270     8.9880    -0.7960 ha         1 8ZD       0.107000
     67 H31          8.7680     8.9490     0.2320 ha         1 8ZD       0.105000
     68 H32         10.3650     7.1680    -0.3560 ha         1 8ZD       0.138000
     69 H33          9.8720     4.7540    -2.9570 hn         1 8ZD       0.176500
     70 H34         12.4780     4.1400    -2.2760 hc         1 8ZD       0.027200
     71 H35         11.3540     2.8220    -1.9170 hc         1 8ZD       0.027200
     72 H36         13.3070     4.1660    -0.0260 hc         1 8ZD       0.012367
     73 H37         13.2660     2.4660    -0.5130 hc         1 8ZD       0.012367
     74 H38         12.0000     3.1150     0.5380 hc         1 8ZD       0.012367
@<TRIPOS>BOND
     1     1     2 1   
     2     2     3 1   
     3     2     4 1   
     4     2     5 1   
     5     5     6 ar  
     6     5     7 ar  
     7     6    10 ar  
     8     6    38 1   
     9     7     8 ar  
    10     7    39 1   
    11     8     9 ar  
    12     8    40 1   
    13     9    10 ar  
    14     9    41 1   
    15    10    11 1   
    16    11    12 1   
    17    11    42 1   
    18    12    13 2   
    19    12    14 1   
    20    14    15 1   
    21    14    26 1   
    22    15    16 1   
    23    15    18 1   
    24    15    43 1   
    25    16    17 1   
    26    16    44 1   
    27    16    45 1   
    28    17    20 1   
    29    17    46 1   
    30    17    47 1   
    31    18    19 1   
    32    18    48 1   
    33    18    49 1   
    34    19    20 1   
    35    19    50 1   
    36    19    51 1   
    37    20    21 1   
    38    21    22 1   
    39    21    23 1   
    40    21    52 1   
    41    22    53 1   
    42    22    54 1   
    43    22    55 1   
    44    23    24 1   
    45    23    56 1   
    46    23    57 1   
    47    24    25 1   
    48    24    58 1   
    49    24    59 1   
    50    25    60 1   
    51    25    61 1   
    52    25    62 1   
    53    26    27 1   
    54    26    63 1   
    55    26    64 1   
    56    27    28 ar  
    57    27    32 ar  
    58    28    29 ar  
    59    28    65 1   
    60    29    30 ar  
    61    29    66 1   
    62    30    31 ar  
    63    30    67 1   
    64    31    32 ar  
    65    31    68 1   
    66    32    33 1   
    67    33    34 1   
    68    33    69 1   
    69    34    35 2   
    70    34    36 1   
    71    36    37 1   
    72    36    70 1   
    73    36    71 1   
    74    37    72 1   
    75    37    73 1   
    76    37    74 1   
@<TRIPOS>SUBSTRUCTURE
     1 8ZD         1 TEMP              0 ****  ****    0 ROOT
