@<TRIPOS>MOLECULE
8ZE
   22    23     1     0     0
SMALL
bcc


@<TRIPOS>ATOM
      1 O1          0.8200   -1.1190   -0.3510 oh        1 8ZE     -0.598800
      2 C2          1.2690    0.1650    0.0580 c3        1 8ZE      0.179700
      3 C3          1.7590    0.0980    1.4670 ca        1 8ZE     -0.091300
      4 C4          1.7580   -1.0990    2.1910 ca        1 8ZE     -0.102000
      5 C5          2.2280   -1.1400    3.5020 ca        1 8ZE     -0.124000
      6 C6          2.7010    0.0360    4.0940 ca        1 8ZE      0.057100
      7 O7          3.1330   -0.0350    5.4080 os        1 8ZE     -0.315900
      8 C8          3.9120    1.0970    5.8100 c3        1 8ZE      0.091400
      9 C9          3.2820    2.3960    5.3370 c3        1 8ZE      0.091400
     10 O10         3.1710    2.4300    3.9110 os        1 8ZE     -0.317900
     11 C11         2.6900    1.2450    3.3720 ca        1 8ZE      0.053100
     12 C12         2.2230    1.2790    2.0560 ca        1 8ZE     -0.123000
     13 H1          0.5170   -1.0190   -1.2610 ho        1 8ZE      0.403000
     14 H2          0.4210    0.9020   -0.0150 h1        1 8ZE      0.032700
     15 H3          2.1030    0.5050   -0.6170 h1        1 8ZE      0.032700
     16 H4          1.3840   -2.0190    1.7140 ha        1 8ZE      0.158000
     17 H5          2.2320   -2.0770    4.0760 ha        1 8ZE      0.151000
     18 H6          3.9270    1.0320    6.9290 h1        1 8ZE      0.069200
     19 H7          4.9480    0.9850    5.3950 h1        1 8ZE      0.069200
     20 H8          2.2600    2.5250    5.7810 h1        1 8ZE      0.069200
     21 H9          3.9300    3.2780    5.5790 h1        1 8ZE      0.069200
     22 H10         2.2270    2.2290    1.5020 ha        1 8ZE      0.148000
@<TRIPOS>BOND
     1    1    2 1   
     2    1   13 1   
     3    2    3 1   
     4    2   14 1   
     5    2   15 1   
     6    3    4 ar  
     7    3   12 ar  
     8    4    5 ar  
     9    4   16 1   
    10    5    6 ar  
    11    5   17 1   
    12    6    7 1   
    13    6   11 ar  
    14    7    8 1   
    15    8    9 1   
    16    8   18 1   
    17    8   19 1   
    18    9   10 1   
    19    9   20 1   
    20    9   21 1   
    21   10   11 1   
    22   11   12 ar  
    23   12   22 1   
@<TRIPOS>SUBSTRUCTURE
     1 8ZE         1 TEMP              0 ****  ****    0 ROOT
