@<TRIPOS>MOLECULE
molecule
   22    23     1     0     0
SMALL
bcc


@<TRIPOS>ATOM
      1 O1           0.0000     0.0000     0.0000 oh         1 8ZE      -0.603800
      2 C2           1.4290     0.0000     0.0000 c3         1 8ZE       0.192700
      3 C3           1.9320     0.0000     1.4210 ca         1 8ZE      -0.090300
      4 C4           2.1620    -1.1980     2.0700 ca         1 8ZE      -0.108000
      5 C5           2.6220    -1.2030     3.3740 ca         1 8ZE      -0.127000
      6 C6           2.8540    -0.0040     4.0340 ca         1 8ZE       0.069100
      7 O7           3.2930    -0.0240     5.3210 os         1 8ZE      -0.321900
      8 C8           3.8620     1.1900     5.8260 c3         1 8ZE       0.096400
      9 C9           2.9400     2.3530     5.4340 c3         1 8ZE       0.101400
     10 O10          2.8450     2.3870     4.0060 os         1 8ZE      -0.323900
     11 C11          2.6250     1.2010     3.3780 ca         1 8ZE       0.059100
     12 C12          2.1680     1.1980     2.0680 ca         1 8ZE      -0.101000
     13 H1          -0.3140     0.0010    -0.8890 ho         1 8ZE       0.401000
     14 H2           1.7900    -0.8840    -0.5110 h1         1 8ZE       0.025700
     15 H3           1.7900     0.8840    -0.5110 h1         1 8ZE       0.025700
     16 H4           1.9840    -2.1340     1.5560 ha         1 8ZE       0.138000
     17 H5           2.8010    -2.1430     3.8810 ha         1 8ZE       0.146000
     18 H6           4.8430     1.3400     5.3910 h1         1 8ZE       0.067700
     19 H7           3.9400     1.1340     6.9050 h1         1 8ZE       0.067700
     20 H8           3.3760     3.2810     5.7820 h1         1 8ZE       0.070200
     21 H9           1.9550     2.1770     5.8500 h1         1 8ZE       0.070200
     22 H10          2.0010     2.1350     1.5510 ha         1 8ZE       0.147000
@<TRIPOS>BOND
     1     8     9 1
     2     8     7 1
     3     9    10 1
     4     7     6 1
     5    10    11 1
     6     6    11 ar
     7     6     5 ar
     8    11    12 ar
     9     5     4 ar
    10    12     3 ar
    11     4     3 ar
    12     3     2 1
    13     2     1 1
    14     1    13 1
    15     2    14 1
    16     2    15 1
    17     4    16 1
    18     5    17 1
    19     8    18 1
    20     8    19 1
    21     9    20 1
    22     9    21 1
    23    12    22 1
@<TRIPOS>SUBSTRUCTURE
     1 8ZE         1 TEMP              0 ****  ****    0 ROOT
