@<TRIPOS>MOLECULE
molecule
   48    51     1     0     0
SMALL
bcc


@<TRIPOS>ATOM
      1 C13          0.0000     0.0000     0.0000 cp         1 8ZG      -0.001000
      2 C15         -1.5250     1.0930    -1.6420 ca         1 8ZG      -0.082000
      3 C17         -2.1080     0.0020    -3.6940 ca         1 8ZG      -0.094000
      4 C21          1.4040     0.0000     0.0000 ca         1 8ZG       0.029400
      5 C22          2.1000     0.0000     1.1700 ca         1 8ZG      -0.071000
      6 C26          5.4980     1.2610     4.2250 c3         1 8ZG       0.106500
      7 C28          8.6820    -1.0280     7.2040 c3         1 8ZG      -0.077100
      8 O01          7.4750     1.0480     6.0770 o          1 8ZG      -0.607100
      9 N03          6.0500    -0.0020     4.7390 n          1 8ZG      -0.498800
     10 C04          5.4990    -1.2640     4.2230 c3         1 8ZG       0.106500
     11 C05          3.9720    -1.2150     4.3440 c3         1 8ZG       0.150800
     12 N06          3.4710    -0.0010     3.6850 nh         1 8ZG      -0.726300
     13 C07          2.0920    -0.0020     3.6320 ca         1 8ZG       0.667200
     14 N08          1.3680    -0.0030     4.7440 nb         1 8ZG      -0.784000
     15 C09          0.0460    -0.0040     4.7070 ca         1 8ZG       0.693900
     16 N10         -0.6370    -0.0020     3.5880 nb         1 8ZG      -0.726000
     17 C11         -0.0040     0.0050     2.4040 ca         1 8ZG       0.444600
     18 C12         -0.7050     0.0050     1.1930 ca         1 8ZG      -0.156300
     19 C14         -0.7350    -0.0000    -1.2880 cp         1 8ZG      -0.094000
     20 C16         -2.2080     1.0880    -2.8420 ca         1 8ZG      -0.146000
     21 C18         -1.3280    -1.0850    -3.3490 ca         1 8ZG      -0.168000
     22 C19         -0.6390    -1.0930    -2.1500 ca         1 8ZG       0.158900
     23 F20          0.1250    -2.1560    -1.8140 f          1 8ZG      -0.130900
     24 C23          1.4130    -0.0010     2.3900 ca         1 8ZG      -0.258600
     25 Cl24         2.2600     0.0010    -1.5090 cl         1 8ZG      -0.089400
     26 C25          3.9720     1.2100     4.3470 c3         1 8ZG       0.150800
     27 C27          7.5830    -1.3070     6.1750 c3         1 8ZG      -0.159400
     28 H1          -1.6040     1.9440    -0.9760 ha         1 8ZG       0.143000
     29 H2          -2.6460     0.0040    -4.6340 ha         1 8ZG       0.138000
     30 H3           3.1830     0.0000     1.1580 ha         1 8ZG       0.168000
     31 H4           5.7760     1.3820     3.1850 h1         1 8ZG       0.064450
     32 H5           5.8820     2.0890     4.8090 h1         1 8ZG       0.064450
     33 H6           9.0780    -1.9660     7.5730 hc         1 8ZG       0.044033
     34 H7           9.4770    -0.4590     6.7370 hc         1 8ZG       0.044033
     35 H8           8.2680    -0.4610     8.0290 hc         1 8ZG       0.044033
     36 H9           5.7770    -1.3830     3.1830 h1         1 8ZG       0.064450
     37 H10          5.8830    -2.0920     4.8060 h1         1 8ZG       0.064450
     38 H11          3.6940    -1.1980     5.3910 h1         1 8ZG       0.057950
     39 H12          3.5450    -2.0880     3.8650 h1         1 8ZG       0.057950
     40 H13         -0.4970    -0.0050     5.6450 h5         1 8ZG       0.060100
     41 H14         -1.7880     0.0050     1.1880 ha         1 8ZG       0.165000
     42 H15         -2.8210     1.9370    -3.1180 ha         1 8ZG       0.138000
     43 H16         -1.2540    -1.9330    -4.0200 ha         1 8ZG       0.148000
     44 H17          3.5430     2.0840     3.8700 h1         1 8ZG       0.057950
     45 H18          3.6940     1.1900     5.3940 h1         1 8ZG       0.057950
     46 H19          7.9970    -1.8750     5.3500 hc         1 8ZG       0.058200
     47 H20          6.7880    -1.8760     6.6410 hc         1 8ZG       0.058200
     48 C02          7.0330    -0.0020     5.6610 c          1 8ZG       0.663100
@<TRIPOS>BOND
     1    10    11 1
     2    10     9 1
     3    11    12 1
     4    27     7 1
     5    27    48 1
     6     9    48 1
     7     9     6 1
     8    48     8 2
     9    12    13 1
    10    12    26 1
    11    14    13 ar
    12    14    15 ar
    13    13    24 ar
    14    15    16 ar
    15     6    26 1
    16    24     5 ar
    17    24    17 ar
    18     5     4 ar
    19    16    17 ar
    20    17    18 ar
    21     4    25 1
    22     4     1 ar
    23     2    20 ar
    24     2    19 ar
    25    18     1 ar
    26     1    19 1
    27    20     3 ar
    28    19    22 ar
    29     3    21 ar
    30    22    21 ar
    31    22    23 1
    32     2    28 1
    33     3    29 1
    34     5    30 1
    35     6    31 1
    36     6    32 1
    37     7    33 1
    38     7    34 1
    39     7    35 1
    40    10    36 1
    41    10    37 1
    42    11    38 1
    43    11    39 1
    44    15    40 1
    45    18    41 1
    46    20    42 1
    47    21    43 1
    48    26    44 1
    49    26    45 1
    50    27    46 1
    51    27    47 1
@<TRIPOS>SUBSTRUCTURE
     1 8ZG         1 TEMP              0 ****  ****    0 ROOT
