@<TRIPOS>MOLECULE
molecule
   56    59     1     0     0
SMALL
bcc


@<TRIPOS>ATOM
      1 CAV          0.0000     0.0000     0.0000 c3         1 8ZH      -0.092400
      2 CAW          1.5310     0.0000     0.0000 c3         1 8ZH       0.160800
      3 NAX          2.0210     0.0000     1.3840 n7         1 8ZH      -0.822200
      4 CAY          1.5880     1.2060     2.1010 c3         1 8ZH       0.160800
      5 CAZ          0.0590     1.2420     2.1640 c3         1 8ZH      -0.092400
      6 CAU         -0.5060     1.2410     0.7410 c3         1 8ZH       0.116700
      7 NAT         -1.9690     1.2160     0.7960 ns         1 8ZH      -0.579900
      8 CAR         -2.6590     2.3680     0.9220 c          1 8ZH       0.673700
      9 OAS         -2.0650     3.4270     0.9930 o          1 8ZH      -0.603100
     10 CAN         -4.1360     2.3430     0.9780 ca         1 8ZH      -0.124600
     11 CAM         -4.8520     3.5330     1.1040 ca         1 8ZH      -0.075000
     12 CAO         -4.8200     1.1270     0.8970 ca         1 8ZH      -0.127000
     13 CAP         -6.1990     1.1070     0.9490 ca         1 8ZH      -0.115000
     14 CAQ         -6.9070     2.2860     1.0790 ca         1 8ZH      -0.148000
     15 CAL         -6.2370     3.5020     1.1550 ca         1 8ZH       0.141600
     16 NAK         -6.9600     4.6920     1.2800 nu         1 8ZH      -0.740300
     17 CAJ         -6.4200     5.8770     0.8240 cc         1 8ZH       0.729300
     18 SBA         -7.1180     7.4190     1.0600 ss         1 8ZH      -0.237300
     19 NAI         -5.3060     5.9780     0.1580 nd         1 8ZH      -0.757000
     20 CAH         -4.9290     7.1780    -0.2030 cd         1 8ZH       0.495200
     21 CAG         -5.7870     8.1700     0.1850 cc         1 8ZH      -0.260000
     22 CAE         -5.6250     9.6000    -0.0770 c          1 8ZH       0.714700
     23 OAF         -4.6550     9.9990    -0.6940 o          1 8ZH      -0.572100
     24 NAD         -6.5500    10.4750     0.3650 ns         1 8ZH      -0.482100
     25 CAC         -6.4580    11.8260     0.0160 ca         1 8ZH       0.057600
     26 CBB         -5.2730    12.5210     0.2270 ca         1 8ZH       0.041400
     27 Cl          -3.9040    11.7120     0.9250 cl         1 8ZH      -0.077400
     28 CBC         -5.1840    13.8560    -0.1190 ca         1 8ZH      -0.118000
     29 CBD         -6.2740    14.5000    -0.6750 ca         1 8ZH      -0.124000
     30 CBE         -7.4550    13.8120    -0.8860 ca         1 8ZH      -0.120000
     31 CAB         -7.5480    12.4750    -0.5480 ca         1 8ZH      -0.089300
     32 CAA         -8.8340    11.7250    -0.7840 c3         1 8ZH      -0.044800
     33 H1          -0.3600     0.0180    -1.0210 hc         1 8ZH       0.055200
     34 H2          -0.3600    -0.8900     0.5010 hc         1 8ZH       0.055200
     35 H3           1.8900     0.8860    -0.5090 h1         1 8ZH       0.035200
     36 H4           1.8900    -0.8860    -0.5090 h1         1 8ZH       0.035200
     37 H5           3.0210    -0.0470     1.3830 hn         1 8ZH       0.354800
     38 H7           1.9470     2.0850     1.5780 h1         1 8ZH       0.035200
     39 H8           1.9890     1.1900     3.1070 h1         1 8ZH       0.035200
     40 H9          -0.3000     0.3680     2.6950 hc         1 8ZH       0.055200
     41 H10         -0.2590     2.1400     2.6780 hc         1 8ZH       0.055200
     42 H11         -0.1730     2.1320     0.2210 h1         1 8ZH       0.079700
     43 H12         -2.4580     0.3470     0.7100 hn         1 8ZH       0.314500
     44 H13         -4.3270     4.4790     1.1630 ha         1 8ZH       0.194000
     45 H14         -4.2680     0.2010     0.7960 ha         1 8ZH       0.126000
     46 H15         -6.7270     0.1640     0.8880 ha         1 8ZH       0.135000
     47 H16         -7.9900     2.2640     1.1180 ha         1 8ZH       0.131000
     48 H17         -7.8530     4.6890     1.7300 hn         1 8ZH       0.463800
     49 H18         -4.0200     7.3680    -0.7610 h4         1 8ZH       0.073100
     50 H19         -7.2780    10.1660     0.9780 hn         1 8ZH       0.324500
     51 H20         -4.2610    14.3970     0.0450 ha         1 8ZH       0.147000
     52 H21         -6.2040    15.5470    -0.9440 ha         1 8ZH       0.136000
     53 H22         -8.3060    14.3190    -1.3240 ha         1 8ZH       0.135000
     54 H23         -9.5200    12.3510    -1.3410 hc         1 8ZH       0.045367
     55 H24         -9.2780    11.4610     0.1680 hc         1 8ZH       0.045367
     56 H25         -8.6270    10.8240    -1.3480 hc         1 8ZH       0.045367
@<TRIPOS>BOND
     1     2     3 1
     2     2     1 1
     3     4     3 1
     4     4     5 1
     5     1     6 1
     6     9     8 2
     7     5     6 1
     8     6     7 1
     9     8     7 1
    10     8    10 1
    11    11    10 ar
    12    11    15 ar
    13    10    12 ar
    14    16    15 1
    15    16    17 1
    16    19    17 2
    17    19    20 1
    18    15    14 ar
    19    17    18 1
    20    20    21 2
    21    12    13 ar
    22    14    13 ar
    23    21    18 1
    24    21    22 1
    25    27    26 1
    26    24    22 1
    27    24    25 1
    28    22    23 2
    29    26    25 ar
    30    26    28 ar
    31    25    31 ar
    32    28    29 ar
    33    31    32 1
    34    31    30 ar
    35    29    30 ar
    36     1    33 1
    37     1    34 1
    38     2    35 1
    39     2    36 1
    40     3    37 1
    41     4    38 1
    42     4    39 1
    43     5    40 1
    44     5    41 1
    45     6    42 1
    46     7    43 1
    47    11    44 1
    48    12    45 1
    49    13    46 1
    50    14    47 1
    51    16    48 1
    52    20    49 1
    53    24    50 1
    54    28    51 1
    55    29    52 1
    56    30    53 1
    57    32    54 1
    58    32    55 1
    59    32    56 1
@<TRIPOS>SUBSTRUCTURE
     1 8ZH         1 TEMP              0 ****  ****    0 ROOT
