@<TRIPOS>MOLECULE
molecule
   33    35     1     0     0
SMALL
bcc


@<TRIPOS>ATOM
      1 C10          0.0000     0.0000     0.0000 ca         1 8ZJ      -0.091500
      2 C13          1.6690     0.0050    -4.9260 cc         1 8ZJ      -0.232200
      3 O01          5.5650     0.0030    -2.4920 oh         1 8ZJ      -0.498100
      4 C02          4.2130     0.0020    -2.4670 cd         1 8ZJ       0.185800
      5 C03          3.5440     0.0010    -1.2790 cc         1 8ZJ      -0.316300
      6 C04          2.1390     0.0010    -1.2820 cc         1 8ZJ       0.515800
      7 C05          1.3950     0.0000     0.0000 ca         1 8ZJ      -0.159500
      8 C06          2.0860     0.0000     1.2110 ca         1 8ZJ      -0.091500
      9 C07          1.3890    -0.0010     2.4010 ca         1 8ZJ      -0.137500
     10 C08          0.0050    -0.0010     2.3950 ca         1 8ZJ      -0.111000
     11 C09         -0.6860     0.0040     1.1970 ca         1 8ZJ      -0.137500
     12 N11          1.4780     0.0010    -2.4310 nd         1 8ZJ      -0.632000
     13 C12          2.1270     0.0030    -3.5950 cd         1 8ZJ       0.448500
     14 N15          0.0310     0.0170    -6.6740 ns         1 8ZJ      -0.593900
     15 C16         -1.3640     0.0230    -7.1200 c3         1 8ZJ       0.108300
     16 O17         -0.5830     0.0090    -4.5370 o          1 8ZJ      -0.604100
     17 C18          2.8240     0.0050    -5.7510 cc         1 8ZJ      -0.122000
     18 C19          3.9010     0.0050    -4.9490 cd         1 8ZJ      -0.195100
     19 N20          3.4980     0.0030    -3.6380 na         1 8ZJ      -0.101100
     20 H101        -0.5430     0.0040    -0.9370 ha         1 8ZJ       0.148500
     21 H011         5.8850    -0.8300    -2.1900 ho         1 8ZJ       0.442000
     22 H031         4.0840     0.1610    -0.3530 ha         1 8ZJ       0.167000
     23 H061         3.1700     0.0000     1.2170 ha         1 8ZJ       0.148500
     24 H071         1.9250    -0.0030     3.3430 ha         1 8ZJ       0.134000
     25 H081        -0.5390     0.0000     3.3320 ha         1 8ZJ       0.131000
     26 H091        -1.7700     0.0040     1.1980 ha         1 8ZJ       0.134000
     27 H151         0.7720     0.0220    -7.3470 hn         1 8ZJ       0.307500
     28 H163        -1.8610     0.9070    -6.7400 h1         1 8ZJ       0.038367
     29 H161        -1.8660    -0.8620    -6.7480 h1         1 8ZJ       0.038367
     30 H162        -1.3970     0.0270    -8.2030 h1         1 8ZJ       0.038367
     31 H181         2.8350    -0.0690    -6.8310 ha         1 8ZJ       0.154000
     32 H191         4.9310     0.0050    -5.2850 h4         1 8ZJ       0.177000
     33 C14          0.3180     0.0100    -5.3570 c          1 8ZJ       0.706300
@<TRIPOS>BOND
     1    15    14 1
     2    16    33 2
     3    14    33 1
     4    33     2 1
     5     2    17 1
     6     2    13 2
     7    17    18 2
     8    11     1 ar
     9    11    10 ar
    10     1     7 ar
    11    13    12 1
    12    13    19 1
    13    12     6 2
    14    18    19 1
    15    10     9 ar
    16     7     6 1
    17     7     8 ar
    18    19     4 1
    19     6     5 1
    20     9     8 ar
    21     4     5 2
    22     4     3 1
    23     1    20 1
    24     3    21 1
    25     5    22 1
    26     8    23 1
    27     9    24 1
    28    10    25 1
    29    11    26 1
    30    14    27 1
    31    15    28 1
    32    15    29 1
    33    15    30 1
    34    17    31 1
    35    18    32 1
@<TRIPOS>SUBSTRUCTURE
     1 8ZJ         1 TEMP              0 ****  ****    0 ROOT
