@<TRIPOS>MOLECULE
8ZJ
   33    35     1     0     0
SMALL
bcc


@<TRIPOS>ATOM
      1 C10          0.0000     0.0000     0.0000 ca         1 8ZJ      -0.074500
      2 C13          1.6690     0.0050    -4.9260 cc         1 8ZJ      -0.253200
      3 O01          5.5650     0.0030    -2.4920 oh         1 8ZJ      -0.475100
      4 C02          4.2130     0.0020    -2.4670 cc         1 8ZJ      -0.011200
      5 C03          3.5440     0.0010    -1.2790 cd         1 8ZJ      -0.270300
      6 C04          2.1390     0.0010    -1.2820 cd         1 8ZJ       0.433800
      7 C05          1.3950     0.0000     0.0000 ca         1 8ZJ      -0.160500
      8 C06          2.0860     0.0000     1.2110 ca         1 8ZJ      -0.074500
      9 C07          1.3890    -0.0010     2.4010 ca         1 8ZJ      -0.108000
     10 C08          0.0050    -0.0010     2.3950 ca         1 8ZJ      -0.088000
     11 C09         -0.6860     0.0040     1.1970 ca         1 8ZJ      -0.108000
     12 N11          1.4780     0.0010    -2.4310 nd         1 8ZJ      -0.478000
     13 C12          2.1270     0.0030    -3.5950 cd         1 8ZJ       0.211500
     14 N15          0.0310     0.0170    -6.6740 ns         1 8ZJ      -0.209900
     15 C16         -1.3640     0.0230    -7.1200 c3         1 8ZJ       0.090300
     16 O17         -0.5830     0.0090    -4.5370 o          1 8ZJ      -0.646100
     17 C18          2.8240     0.0050    -5.7510 cc         1 8ZJ      -0.073000
     18 C19          3.9010     0.0050    -4.9490 cd         1 8ZJ      -0.380100
     19 N20          3.4980     0.0030    -3.6380 na         1 8ZJ       0.459900
     20 H101        -0.5430     0.0040    -0.9370 ha         1 8ZJ       0.121000
     21 H011         5.8850    -0.8300    -2.1900 ho         1 8ZJ       0.418000
     22 H031         4.0840     0.1610    -0.3530 ha         1 8ZJ       0.146000
     23 H061         3.1700     0.0000     1.2170 ha         1 8ZJ       0.121000
     24 H071         1.9250    -0.0030     3.3430 ha         1 8ZJ       0.104500
     25 H081        -0.5390     0.0000     3.3320 ha         1 8ZJ       0.101000
     26 H091        -1.7700     0.0040     1.1980 ha         1 8ZJ       0.104500
     27 H151         0.7720     0.0220    -7.3470 hn         1 8ZJ       0.168500
     28 H163        -1.8610     0.9070    -6.7400 h1         1 8ZJ       0.006033
     29 H161        -1.8660    -0.8620    -6.7480 h1         1 8ZJ       0.006033
     30 H162        -1.3970     0.0270    -8.2030 h1         1 8ZJ       0.006033
     31 H181         2.8350    -0.0690    -6.8310 ha         1 8ZJ       0.125000
     32 H191         4.9310     0.0050    -5.2850 h4         1 8ZJ       0.158000
     33 C14          0.3180     0.0100    -5.3570 c          1 8ZJ       0.631300
@<TRIPOS>BOND
     1     1     7 ar  
     2     1    11 ar  
     3     1    20 1   
     4     2    13 2   
     5     2    17 1   
     6     2    33 1   
     7     3     4 1   
     8     3    21 1   
     9     4     5 2   
    10     4    19 1   
    11     5     6 1   
    12     5    22 1   
    13     6     7 1   
    14     6    12 2   
    15     7     8 ar  
    16     8     9 ar  
    17     8    23 1   
    18     9    10 ar  
    19     9    24 1   
    20    10    11 ar  
    21    10    25 1   
    22    11    26 1   
    23    12    13 1   
    24    13    19 1   
    25    14    15 1   
    26    14    27 1   
    27    14    33 1   
    28    15    28 1   
    29    15    29 1   
    30    15    30 1   
    31    16    33 2   
    32    17    18 2   
    33    17    31 1   
    34    18    19 1   
    35    18    32 1   
@<TRIPOS>SUBSTRUCTURE
     1 8ZJ         1 TEMP              0 ****  ****    0 ROOT
