@<TRIPOS>MOLECULE
molecule
   62    65     1     0     0
SMALL
bcc


@<TRIPOS>ATOM
      1 CAU          0.0000     0.0000     0.0000 c3         1 8ZK      -0.092400
      2 CAV          1.5310     0.0000     0.0000 c3         1 8ZK       0.160800
      3 NAW          2.0220     0.0000     1.3840 n7         1 8ZK      -0.820200
      4 CAX          1.5880     1.2050     2.1020 c3         1 8ZK       0.160800
      5 CAY          0.0590     1.2410     2.1650 c3         1 8ZK      -0.092400
      6 CAT         -0.5050     1.2400     0.7410 c3         1 8ZK       0.116700
      7 NAS         -1.9690     1.2150     0.7950 ns         1 8ZK      -0.575900
      8 CAR         -2.6590     2.3660     0.9230 c          1 8ZK       0.675700
      9 OAZ         -2.0660     3.4260     0.9940 o          1 8ZK      -0.615100
     10 CAQ         -4.1360     2.3410     0.9770 ca         1 8ZK      -0.123600
     11 CBA         -4.8180     1.1260     0.9030 ca         1 8ZK      -0.117000
     12 CAP         -4.8530     3.5320     1.1090 ca         1 8ZK      -0.084000
     13 CAM         -6.2320     3.5050     1.1610 ca         1 8ZK      -0.070300
     14 CAN         -7.0020     4.7920     1.3050 c3         1 8ZK      -0.038100
     15 CAO         -7.3190     5.3540    -0.0830 c3         1 8ZK      -0.088100
     16 CAL         -6.9080     2.3030     1.0820 ca         1 8ZK      -0.144000
     17 CAK         -6.2040     1.1110     0.9550 ca         1 8ZK       0.142600
     18 NAJ         -6.8930    -0.1030     0.8820 nu         1 8ZK      -0.739300
     19 CAI         -6.2810    -1.2700     1.2940 cc         1 8ZK       0.731300
     20 SBB         -6.9420    -2.8350     1.1090 ss         1 8ZK      -0.229300
     21 NAH         -5.1170    -1.3310     1.8760 nd         1 8ZK      -0.771000
     22 CAG         -4.6750    -2.5180     2.2060 cd         1 8ZK       0.487200
     23 CAF         -5.5240    -3.5390     1.8810 cc         1 8ZK      -0.258000
     24 CAE         -5.2950    -4.9620     2.1280 c          1 8ZK       0.712700
     25 OBC         -4.2690    -5.3280     2.6720 o          1 8ZK      -0.572100
     26 NAD         -6.2190    -5.8690     1.7550 ns         1 8ZK      -0.481100
     27 CAC         -6.0560    -7.2160     2.0940 ca         1 8ZK       0.056600
     28 CAB         -4.8670    -7.8700     1.7920 ca         1 8ZK       0.041400
     29 Cl          -3.5830    -7.0170     0.9950 cl         1 8ZK      -0.079400
     30 CBH         -4.7090    -9.2000     2.1290 ca         1 8ZK      -0.118000
     31 CBG         -5.7320    -9.8810     2.7650 ca         1 8ZK      -0.123000
     32 CBF         -6.9150    -9.2330     3.0650 ca         1 8ZK      -0.120000
     33 CBD         -7.0780    -7.9000     2.7370 ca         1 8ZK      -0.088300
     34 CBE         -8.3660    -7.1940     3.0700 c3         1 8ZK      -0.045800
     35 H1          -0.3600    -0.8910     0.5000 hc         1 8ZK       0.056450
     36 H2          -0.3600     0.0190    -1.0210 hc         1 8ZK       0.056450
     37 H3           1.8900     0.8860    -0.5090 h1         1 8ZK       0.034200
     38 H4           1.8900    -0.8860    -0.5090 h1         1 8ZK       0.034200
     39 H5           3.0220    -0.0460     1.3830 hn         1 8ZK       0.354800
     40 H7           1.9890     1.1890     3.1080 h1         1 8ZK       0.034200
     41 H8           1.9470     2.0840     1.5790 h1         1 8ZK       0.034200
     42 H9          -0.3010     0.3680     2.6960 hc         1 8ZK       0.056450
     43 H10         -0.2600     2.1400     2.6790 hc         1 8ZK       0.056450
     44 H11         -0.1730     2.1310     0.2220 h1         1 8ZK       0.075700
     45 H12         -2.4580     0.3460     0.7040 hn         1 8ZK       0.321500
     46 H13         -4.2680     0.1990     0.8050 ha         1 8ZK       0.163000
     47 H14         -4.3270     4.4740     1.1980 ha         1 8ZK       0.160000
     48 H15         -7.9270     4.6020     1.8370 hc         1 8ZK       0.051200
     49 H16         -6.4080     5.5090     1.8580 hc         1 8ZK       0.051200
     50 H17         -7.9850     4.6760    -0.6040 hc         1 8ZK       0.037367
     51 H18         -6.4010     5.4630    -0.6470 hc         1 8ZK       0.037367
     52 H19         -7.7960     6.3210     0.0200 hc         1 8ZK       0.037367
     53 H20         -7.9900     2.2880     1.1230 ha         1 8ZK       0.132000
     54 H21         -7.8200    -0.1300     0.5070 hn         1 8ZK       0.464800
     55 H22         -3.7210    -2.6770     2.6940 h4         1 8ZK       0.071100
     56 H23         -7.0030    -5.5840     1.2010 hn         1 8ZK       0.324500
     57 H24         -3.7830    -9.7110     1.8950 ha         1 8ZK       0.147000
     58 H25         -5.6070   -10.9250     3.0260 ha         1 8ZK       0.137000
     59 H26         -7.7140    -9.7680     3.5650 ha         1 8ZK       0.136000
     60 H27         -8.1490    -6.2890     3.6250 hc         1 8ZK       0.045700
     61 H28         -8.9900    -7.8450     3.6700 hc         1 8ZK       0.045700
     62 H29         -8.8860    -6.9390     2.1540 hc         1 8ZK       0.045700
@<TRIPOS>BOND
     1     1     2 1   
     2     1     6 1   
     3     2     3 1   
     4     6     7 1   
     5     6     5 1   
     6     7     8 1   
     7     3     4 1   
     8     5     4 1   
     9     8     9 2   
    10     8    10 1   
    11    11    10 ar  
    12    11    17 ar  
    13    10    12 ar  
    14    18    17 1   
    15    18    19 1   
    16    21    19 2   
    17    21    22 1   
    18    17    16 ar  
    19    19    20 1   
    20    22    23 2   
    21    12    13 ar  
    22    16    13 ar  
    23    23    20 1   
    24    23    24 1   
    25    13    14 1   
    26    34    33 1   
    27    26    24 1   
    28    26    27 1   
    29    24    25 2   
    30    14    15 1   
    31    33    27 ar  
    32    33    32 ar  
    33    27    28 ar  
    34    32    31 ar  
    35    28    29 1   
    36    28    30 ar  
    37    31    30 ar  
    38     1    35 1   
    39     1    36 1   
    40     2    37 1   
    41     2    38 1   
    42     3    39 1   
    43     4    40 1   
    44     4    41 1   
    45     5    42 1   
    46     5    43 1   
    47     6    44 1   
    48     7    45 1   
    49    11    46 1   
    50    12    47 1   
    51    14    48 1   
    52    14    49 1   
    53    15    50 1   
    54    15    51 1   
    55    15    52 1   
    56    16    53 1   
    57    18    54 1   
    58    22    55 1   
    59    26    56 1   
    60    30    57 1   
    61    31    58 1   
    62    32    59 1   
    63    34    60 1   
    64    34    61 1   
    65    34    62 1   
@<TRIPOS>SUBSTRUCTURE
     1 8ZK         1 TEMP              0 ****  ****    0 ROOT
