@<TRIPOS>MOLECULE
molecule
   23    25     1     0     0
SMALL
bcc


@<TRIPOS>ATOM
      1 C4           0.0000     0.0000     0.0000 ca         1 8ZM      -0.176500
      2 C7          -0.7450     0.0000    -1.2810 cc         1 8ZM       0.569800
      3 C6           0.0070     0.0050     2.4020 ca         1 8ZM      -0.136500
      4 C9          -2.8200     0.0070    -2.4640 cd         1 8ZM       0.250800
      5 C8          -2.1500     0.0060    -1.2750 cc         1 8ZM      -0.329300
      6 C1           1.3910    -0.0000     2.3950 ca         1 8ZM      -0.099000
      7 C2           2.0810     0.0000     1.1960 ca         1 8ZM      -0.136500
      8 C3           1.3940     0.0000     0.0000 ca         1 8ZM      -0.084000
      9 C5          -0.6910     0.0050     1.2110 ca         1 8ZM      -0.084000
     10 N10         -2.1030     0.0020    -3.6250 na         1 8ZM      -0.043800
     11 C11         -0.7340     0.0020    -3.5950 cd         1 8ZM       0.425500
     12 N12         -0.0830     0.0010    -2.4280 nd         1 8ZM      -0.672000
     13 N13         -0.3300    -0.0030    -4.8590 nc         1 8ZM      -0.134000
     14 N14         -1.3430    -0.0060    -5.6500 nc         1 8ZM       0.035000
     15 N15         -2.4460     0.0010    -4.9830 nd         1 8ZM      -0.240400
     16 O16         -4.1720     0.0070    -2.4920 oh         1 8ZM      -0.483100
     17 HC6         -0.5290     0.0070     3.3430 ha         1 8ZM       0.139000
     18 HC8         -2.6890    -0.1630    -0.3500 ha         1 8ZM       0.179000
     19 HC1          1.9350    -0.0000     3.3310 ha         1 8ZM       0.136000
     20 HC2          3.1650    -0.0020     1.1970 ha         1 8ZM       0.139000
     21 HC3          1.9370     0.0000    -0.9380 ha         1 8ZM       0.146500
     22 HC5         -1.7750     0.0090     1.2170 ha         1 8ZM       0.146500
     23 HO16        -4.4890     0.8840    -2.3560 ho         1 8ZM       0.450000
@<TRIPOS>BOND
     1    16     4 1   
     2     3     9 ar  
     3     3     6 ar  
     4     9     1 ar  
     5     5     4 2   
     6     5     2 1   
     7     4    10 1   
     8     6     7 ar  
     9     1     2 1   
    10     1     8 ar  
    11     2    12 2   
    12    10    15 1   
    13    10    11 1   
    14     7     8 ar  
    15    15    14 2   
    16    12    11 1   
    17    11    13 2   
    18    14    13 1   
    19     3    17 1   
    20     5    18 1   
    21     6    19 1   
    22     7    20 1   
    23     8    21 1   
    24     9    22 1   
    25    16    23 1   
@<TRIPOS>SUBSTRUCTURE
     1 8ZM         1 TEMP              0 ****  ****    0 ROOT
