@<TRIPOS>MOLECULE
8ZN
   59    62     1     0     0
SMALL
bcc


@<TRIPOS>ATOM
      1 CAW          0.0000     0.0000     0.0000 c3         1 8ZN      -0.040400
      2 CAX          1.5300     0.0000     0.0000 c3         1 8ZN       0.153300
      3 NAY          2.0210     0.0000     1.3850 n7         1 8ZN      -0.582200
      4 CAZ          1.5870     1.2060     2.1020 c3         1 8ZN       0.153300
      5 CBA          0.0580     1.2420     2.1640 c3         1 8ZN      -0.040400
      6 CAV         -0.5060     1.2410     0.7400 c3         1 8ZN       0.015700
      7 NAU         -1.9690     1.2170     0.7940 ns         1 8ZN      -0.184900
      8 CAT         -2.6580     2.3690     0.9210 c          1 8ZN       0.595700
      9 OBB         -2.0650     3.4260     0.9910 o          1 8ZN      -0.646100
     10 CAS         -4.1360     2.3440     0.9750 ca         1 8ZN      -0.134600
     11 CBC         -4.8190     1.1300     0.9010 ca         1 8ZN      -0.073000
     12 CAR         -4.8520     3.5350     1.1070 ca         1 8ZN       0.004000
     13 CAM         -6.2310     3.5100     1.1570 ca         1 8ZN      -0.199300
     14 CAN         -7.0010     4.7970     1.3000 c3         1 8ZN       0.642200
     15 FAP         -7.2890     5.3100     0.0310 f          1 8ZN      -0.205967
     16 FAQ         -8.1950     4.5520     1.9870 f          1 8ZN      -0.205967
     17 FAO         -6.2330     5.7230     2.0140 f          1 8ZN      -0.205967
     18 CAL         -6.9070     2.3070     1.0780 ca         1 8ZN      -0.062000
     19 CAK         -6.2040     1.1150     0.9520 ca         1 8ZN      -0.027400
     20 NAJ         -6.8930    -0.0990     0.8790 nu         1 8ZN      -0.238300
     21 CAI         -6.2830    -1.2650     1.2930 cc         1 8ZN       0.557300
     22 SBD         -6.9450    -2.8300     1.1080 ss         1 8ZN      -0.312300
     23 NAH         -5.1190    -1.3270     1.8750 nd         1 8ZN      -0.677000
     24 CAG         -4.6780    -2.5140     2.2060 cd         1 8ZN       0.487200
     25 CAF         -5.5280    -3.5350     1.8810 cc         1 8ZN      -0.234000
     26 CAE         -5.2990    -4.9580     2.1290 c          1 8ZN       0.629700
     27 OBE         -4.2740    -5.3240     2.6730 o          1 8ZN      -0.622100
     28 NAD         -6.2250    -5.8640     1.7550 ns         1 8ZN      -0.043100
     29 CAC         -6.0610    -7.2110     2.0950 ca         1 8ZN      -0.092400
     30 CAB         -4.8720    -7.8660     1.7970 ca         1 8ZN      -0.021600
     31 Cl          -3.5870    -7.0130     1.0010 cl         1 8ZN       0.014600
     32 CBJ         -4.7150    -9.1960     2.1340 ca         1 8ZN      -0.096000
     33 CBI         -5.7380    -9.8760     2.7680 ca         1 8ZN      -0.087000
     34 CBH         -6.9230    -9.2270     3.0660 ca         1 8ZN      -0.094000
     35 CBF         -7.0850    -7.8960     2.7370 ca         1 8ZN      -0.089300
     36 CBG         -8.3730    -7.1890     3.0680 c3         1 8ZN       0.061200
     37 H1          -0.3600     0.0180    -1.0210 hc         1 8ZN       0.027200
     38 H2          -0.3600    -0.8900     0.5010 hc         1 8ZN       0.027200
     39 H3           1.8900    -0.8860    -0.5090 h1         1 8ZN       0.007950
     40 H4           1.8900     0.8860    -0.5090 h1         1 8ZN       0.007950
     41 H5           3.0210    -0.0460     1.3840 hn         1 8ZN       0.253800
     42 H7           1.9470     2.0840     1.5790 h1         1 8ZN       0.007950
     43 H8           1.9880     1.1890     3.1080 h1         1 8ZN       0.007950
     44 H9          -0.3020     0.3690     2.6950 hc         1 8ZN       0.027200
     45 H10         -0.2600     2.1410     2.6780 hc         1 8ZN       0.027200
     46 H11         -0.1730     2.1310     0.2210 h1         1 8ZN       0.056700
     47 H12         -2.4590     0.3490     0.6960 hn         1 8ZN       0.183500
     48 H13         -4.2680     0.2020     0.8030 ha         1 8ZN       0.150000
     49 H14         -4.3250     4.4800     1.1550 ha         1 8ZN       0.144000
     50 H15         -7.9900     2.2930     1.1180 ha         1 8ZN       0.120000
     51 H16         -7.8200    -0.1270     0.5030 hn         1 8ZN       0.293800
     52 H17         -3.7240    -2.6740     2.6950 h4         1 8ZN       0.021100
     53 H18         -7.0000    -5.5810     1.1890 hn         1 8ZN       0.175500
     54 H19         -3.7880    -9.7080     1.9020 ha         1 8ZN       0.116000
     55 H20         -5.6130   -10.9200     3.0300 ha         1 8ZN       0.106000
     56 H21         -7.7220    -9.7620     3.5650 ha         1 8ZN       0.109000
     57 H22         -8.8950    -6.9410     2.1510 hc         1 8ZN       0.010367
     58 H23         -8.1560    -6.2800     3.6170 hc         1 8ZN       0.010367
     59 H24         -8.9950    -7.8370     3.6730 hc         1 8ZN       0.010367
@<TRIPOS>BOND
     1     1     2 1   
     2     1     6 1   
     3     1    37 1   
     4     1    38 1   
     5     2     3 1   
     6     2    39 1   
     7     2    40 1   
     8     3     4 1   
     9     3    41 1   
    10     4     5 1   
    11     4    42 1   
    12     4    43 1   
    13     5     6 1   
    14     5    44 1   
    15     5    45 1   
    16     6     7 1   
    17     6    46 1   
    18     7     8 1   
    19     7    47 1   
    20     8     9 2   
    21     8    10 1   
    22    10    11 ar  
    23    10    12 ar  
    24    11    19 ar  
    25    11    48 1   
    26    12    13 ar  
    27    12    49 1   
    28    13    14 1   
    29    13    18 ar  
    30    14    15 1   
    31    14    16 1   
    32    14    17 1   
    33    18    19 ar  
    34    18    50 1   
    35    19    20 1   
    36    20    21 1   
    37    20    51 1   
    38    21    22 1   
    39    21    23 2   
    40    22    25 1   
    41    23    24 1   
    42    24    25 2   
    43    24    52 1   
    44    25    26 1   
    45    26    27 2   
    46    26    28 1   
    47    28    29 1   
    48    28    53 1   
    49    29    30 ar  
    50    29    35 ar  
    51    30    31 1   
    52    30    32 ar  
    53    32    33 ar  
    54    32    54 1   
    55    33    34 ar  
    56    33    55 1   
    57    34    35 ar  
    58    34    56 1   
    59    35    36 1   
    60    36    57 1   
    61    36    58 1   
    62    36    59 1   
@<TRIPOS>SUBSTRUCTURE
     1 8ZN         1 TEMP              0 ****  ****    0 ROOT
