@<TRIPOS>MOLECULE
molecule
   48    51     1     0     0
SMALL
bcc


@<TRIPOS>ATOM
      1 C10          0.0000     0.0000     0.0000 ca         1 8ZP      -0.097500
      2 C13          1.6670     0.0040    -4.9250 cc         1 8ZP      -0.172200
      3 C17         -1.8870     1.4600    -7.1490 c3         1 8ZP      -0.099400
      4 C20         -0.6100     0.2480    -9.4900 c3         1 8ZP      -0.057400
      5 C21         -1.4570    -0.5820    -8.5220 c3         1 8ZP      -0.186700
      6 C22         -0.9440    -1.9990    -8.4940 c          1 8ZP       0.887600
      7 C26          2.8220     0.0050    -5.7510 cc         1 8ZP      -0.115000
      8 C02          4.2120     0.0020    -2.4670 cd         1 8ZP       0.173800
      9 C03          3.5430     0.0010    -1.2790 cc         1 8ZP      -0.317300
     10 C04          2.1380     0.0010    -1.2810 cc         1 8ZP       0.476800
     11 C05          1.3950     0.0000     0.0000 ca         1 8ZP      -0.138500
     12 C06          2.0870     0.0000     1.2110 ca         1 8ZP      -0.097500
     13 C07          1.3890    -0.0010     2.4010 ca         1 8ZP      -0.140000
     14 C08          0.0060    -0.0010     2.3950 ca         1 8ZP      -0.126000
     15 C09         -0.6870    -0.0010     1.1970 ca         1 8ZP      -0.140000
     16 N11          1.4780     0.0010    -2.4310 nd         1 8ZP      -0.603000
     17 C12          2.1260     0.0020    -3.5950 cd         1 8ZP       0.416500
     18 N15          0.0290     0.0160    -6.6740 ns         1 8ZP      -0.532900
     19 C16         -1.3670     0.0220    -7.1190 c3         1 8ZP       0.142700
     20 C18         -1.0390     2.2890    -8.1150 c3         1 8ZP      -0.077400
     21 C19         -1.1290     1.6860    -9.5190 c3         1 8ZP      -0.087400
     22 O23         -0.9280    -2.7290    -9.6190 o          1 8ZP      -0.843800
     23 O24         -0.5480    -2.4770    -7.4580 o          1 8ZP      -0.843800
     24 O25         -0.5850     0.0080    -4.5370 o          1 8ZP      -0.630100
     25 C27          3.9000     0.0040    -4.9490 cd         1 8ZP      -0.203100
     26 N28          3.4960     0.0030    -3.6380 na         1 8ZP      -0.103100
     27 H101        -0.5430    -0.0000    -0.9370 ha         1 8ZP       0.151500
     28 H172        -1.8210     1.8870    -6.1550 hc         1 8ZP       0.038700
     29 H171        -2.9180     1.4630    -7.4810 hc         1 8ZP       0.038700
     30 H201        -0.6770    -0.1790   -10.4830 hc         1 8ZP       0.042200
     31 H202         0.4220     0.2440    -9.1590 hc         1 8ZP       0.042200
     32 H211        -2.4890    -0.5730    -8.8510 hc         1 8ZP       0.052700
     33 H261         2.8320    -0.0700    -6.8320 ha         1 8ZP       0.169000
     34 H011         5.8850    -0.8310    -2.1910 ho         1 8ZP       0.435000
     35 H031         4.0830     0.1560    -0.3530 ha         1 8ZP       0.154000
     36 H061         3.1700    -0.0000     1.2170 ha         1 8ZP       0.151500
     37 H071         1.9250    -0.0010     3.3420 ha         1 8ZP       0.127500
     38 H081        -0.5380    -0.0010     3.3320 ha         1 8ZP       0.121000
     39 H091        -1.7700    -0.0010     1.1990 ha         1 8ZP       0.127500
     40 H151         0.7680    -0.0270    -7.3470 hn         1 8ZP       0.313500
     41 H161        -1.9710    -0.5640    -6.4360 h1         1 8ZP       0.086700
     42 H181        -1.4100     3.3070    -8.1360 hc         1 8ZP       0.025700
     43 H182        -0.0070     2.2830    -7.7860 hc         1 8ZP       0.025700
     44 H192        -0.5260     2.2730   -10.2010 hc         1 8ZP       0.024200
     45 H191        -2.1620     1.6890    -9.8460 hc         1 8ZP       0.024200
     46 H271         4.9290     0.0040    -5.2860 h4         1 8ZP       0.168000
     47 O01          5.5640     0.0030    -2.4920 oh         1 8ZP      -0.505100
     48 C14          0.3160     0.0090    -5.3560 c          1 8ZP       0.702300
@<TRIPOS>BOND
     1    23     6 1   
     2     6     5 1   
     3     6    22 1   
     4     5    19 1   
     5     5     4 1   
     6    19     3 1   
     7    19    18 1   
     8    20     3 1   
     9    20    21 1   
    10     4    21 1   
    11    24    48 2   
    12    18    48 1   
    13    48     2 1   
    14     2     7 1   
    15     2    17 2   
    16     7    25 2   
    17    17    16 1   
    18    17    26 1   
    19    16    10 2   
    20    13    12 ar  
    21    13    14 ar  
    22    12    11 ar  
    23    25    26 1   
    24    26     8 1   
    25    10    11 1   
    26    10     9 1   
    27    11     1 ar  
    28    14    15 ar  
    29     8     9 2   
    30     8    47 1   
    31     1    15 ar  
    32     1    27 1   
    33     3    28 1   
    34     3    29 1   
    35     4    30 1   
    36     4    31 1   
    37     5    32 1   
    38     7    33 1   
    39    47    34 1   
    40     9    35 1   
    41    12    36 1   
    42    13    37 1   
    43    14    38 1   
    44    15    39 1   
    45    18    40 1   
    46    19    41 1   
    47    20    42 1   
    48    20    43 1   
    49    21    44 1   
    50    21    45 1   
    51    25    46 1   
@<TRIPOS>SUBSTRUCTURE
     1 8ZP         1 TEMP              0 ****  ****    0 ROOT
