@<TRIPOS>MOLECULE
8ZP
   48    51     1     0     0
SMALL
bcc


@<TRIPOS>ATOM
      1 C10          0.0000     0.0000     0.0000 ca         1 8ZP      -0.082500
      2 C13          1.6670     0.0040    -4.9250 cc         1 8ZP      -0.186200
      3 C17         -1.8870     1.4600    -7.1490 c3         1 8ZP      -0.049400
      4 C20         -0.6100     0.2480    -9.4900 c3         1 8ZP      -0.011400
      5 C21         -1.4570    -0.5820    -8.5220 c3         1 8ZP      -0.167700
      6 C22         -0.9440    -1.9990    -8.4940 c          1 8ZP       0.976600
      7 C26          2.8220     0.0050    -5.7510 cc         1 8ZP      -0.072000
      8 C02          4.2120     0.0020    -2.4670 cc         1 8ZP      -0.023200
      9 C03          3.5430     0.0010    -1.2790 cd         1 8ZP      -0.273300
     10 C04          2.1380     0.0010    -1.2810 cd         1 8ZP       0.387800
     11 C05          1.3950     0.0000     0.0000 ca         1 8ZP      -0.134500
     12 C06          2.0870     0.0000     1.2110 ca         1 8ZP      -0.082500
     13 C07          1.3890    -0.0010     2.4010 ca         1 8ZP      -0.111000
     14 C08          0.0060    -0.0010     2.3950 ca         1 8ZP      -0.106000
     15 C09         -0.6870    -0.0010     1.1970 ca         1 8ZP      -0.111000
     16 N11          1.4780     0.0010    -2.4310 nd         1 8ZP      -0.440000
     17 C12          2.1260     0.0020    -3.5950 cd         1 8ZP       0.176500
     18 N15          0.0290     0.0160    -6.6740 ns         1 8ZP      -0.128900
     19 C16         -1.3670     0.0220    -7.1190 c3         1 8ZP       0.038700
     20 C18         -1.0390     2.2890    -8.1150 c3         1 8ZP      -0.028400
     21 C19         -1.1290     1.6860    -9.5190 c3         1 8ZP      -0.032400
     22 O23         -0.9280    -2.7290    -9.6190 o          1 8ZP      -0.893300
     23 O24         -0.5480    -2.4770    -7.4580 o          1 8ZP      -0.893300
     24 O25         -0.5850     0.0080    -4.5370 o          1 8ZP      -0.678100
     25 C27          3.9000     0.0040    -4.9490 cd         1 8ZP      -0.387100
     26 N28          3.4960     0.0030    -3.6380 na         1 8ZP       0.454900
     27 H101        -0.5430    -0.0000    -0.9370 ha         1 8ZP       0.124500
     28 H172        -1.8210     1.8870    -6.1550 hc         1 8ZP       0.015200
     29 H171        -2.9180     1.4630    -7.4810 hc         1 8ZP       0.015200
     30 H201        -0.6770    -0.1790   -10.4830 hc         1 8ZP       0.019700
     31 H202         0.4220     0.2440    -9.1590 hc         1 8ZP       0.019700
     32 H211        -2.4890    -0.5730    -8.8510 hc         1 8ZP       0.033700
     33 H261         2.8320    -0.0700    -6.8320 ha         1 8ZP       0.138000
     34 H011         5.8850    -0.8310    -2.1910 ho         1 8ZP       0.411000
     35 H031         4.0830     0.1560    -0.3530 ha         1 8ZP       0.136000
     36 H061         3.1700    -0.0000     1.2170 ha         1 8ZP       0.124500
     37 H071         1.9250    -0.0010     3.3420 ha         1 8ZP       0.099500
     38 H081        -0.5380    -0.0010     3.3320 ha         1 8ZP       0.094000
     39 H091        -1.7700    -0.0010     1.1990 ha         1 8ZP       0.099500
     40 H151         0.7680    -0.0270    -7.3470 hn         1 8ZP       0.178500
     41 H161        -1.9710    -0.5640    -6.4360 h1         1 8ZP       0.066700
     42 H181        -1.4100     3.3070    -8.1360 hc         1 8ZP       0.000200
     43 H182        -0.0070     2.2830    -7.7860 hc         1 8ZP       0.000200
     44 H192        -0.5260     2.2730   -10.2010 hc         1 8ZP       0.000200
     45 H191        -2.1620     1.6890    -9.8460 hc         1 8ZP       0.000200
     46 H271         4.9290     0.0040    -5.2860 h4         1 8ZP       0.150000
     47 O01          5.5640     0.0030    -2.4920 oh         1 8ZP      -0.481100
     48 C14          0.3160     0.0090    -5.3560 c          1 8ZP       0.616300
@<TRIPOS>BOND
     1     1    11 ar  
     2     1    15 ar  
     3     1    27 1   
     4     2     7 1   
     5     2    17 2   
     6     2    48 1   
     7     3    19 1   
     8     3    20 1   
     9     3    28 1   
    10     3    29 1   
    11     4     5 1   
    12     4    21 1   
    13     4    30 1   
    14     4    31 1   
    15     5     6 1   
    16     5    19 1   
    17     5    32 1   
    18     6    22 1   
    19     6    23 1   
    20     7    25 2   
    21     7    33 1   
    22     8     9 2   
    23     8    26 1   
    24     8    47 1   
    25     9    10 1   
    26     9    35 1   
    27    10    11 1   
    28    10    16 2   
    29    11    12 ar  
    30    12    13 ar  
    31    12    36 1   
    32    13    14 ar  
    33    13    37 1   
    34    14    15 ar  
    35    14    38 1   
    36    15    39 1   
    37    16    17 1   
    38    17    26 1   
    39    18    19 1   
    40    18    40 1   
    41    18    48 1   
    42    19    41 1   
    43    20    21 1   
    44    20    42 1   
    45    20    43 1   
    46    21    44 1   
    47    21    45 1   
    48    24    48 2   
    49    25    26 1   
    50    25    46 1   
    51    34    47 1   
@<TRIPOS>SUBSTRUCTURE
     1 8ZP         1 TEMP              0 ****  ****    0 ROOT
