@<TRIPOS>MOLECULE
molecule
   68    72     1     0     0
SMALL
bcc


@<TRIPOS>ATOM
      1 CAZ          0.0000     0.0000     0.0000 c3         1 8ZQ      -0.092400
      2 CBA          1.5300     0.0000     0.0000 c3         1 8ZQ       0.160800
      3 NBB          2.0210     0.0000     1.3830 n7         1 8ZQ      -0.822200
      4 CBC          1.5880     1.2060     2.1010 c3         1 8ZQ       0.160800
      5 CBD          0.0600     1.2420     2.1640 c3         1 8ZQ      -0.092400
      6 CAY         -0.5060     1.2410     0.7400 c3         1 8ZQ       0.115700
      7 NAX         -1.9690     1.2170     0.7940 ns         1 8ZQ      -0.579900
      8 CAW         -2.6580     2.3690     0.9210 c          1 8ZQ       0.675700
      9 OBE         -2.0650     3.4270     0.9900 o          1 8ZQ      -0.607100
     10 CAV         -4.1360     2.3450     0.9750 ca         1 8ZQ      -0.132600
     11 CBF         -4.8180     1.1290     0.9010 ca         1 8ZQ      -0.141000
     12 CAU         -4.8490     3.5340     1.1060 ca         1 8ZQ      -0.074000
     13 CAM         -6.2390     3.5080     1.1580 cp         1 8ZQ      -0.021000
     14 CAN         -7.0020     4.7720     1.2970 cp         1 8ZQ      -0.101000
     15 CAO         -6.6580     5.6910     2.2860 ca         1 8ZQ      -0.078000
     16 CAP         -7.3700     6.8670     2.4120 ca         1 8ZQ      -0.167000
     17 CAQ         -8.4260     7.1380     1.5580 ca         1 8ZQ      -0.092000
     18 CAR         -8.7750     6.2350     0.5720 ca         1 8ZQ      -0.186000
     19 CAS         -8.0650     5.0510     0.4310 ca         1 8ZQ       0.203600
     20 NAT         -8.4130     4.1410    -0.5670 nv         1 8ZQ      -0.947200
     21 CAL         -6.9150     2.2910     1.0780 ca         1 8ZQ      -0.089000
     22 CAK         -6.2030     1.1070     0.9520 ca         1 8ZQ       0.134600
     23 NAJ         -6.8850    -0.1110     0.8770 nu         1 8ZQ      -0.749300
     24 CAI         -8.0090    -0.3220     1.6500 cc         1 8ZQ       0.735300
     25 SBG         -8.9700    -1.7360     1.6060 ss         1 8ZQ      -0.241300
     26 NAH         -8.4820     0.5250     2.5180 nd         1 8ZQ      -0.760000
     27 CAG         -9.5590     0.1730     3.1730 cd         1 8ZQ       0.494200
     28 CAF        -10.0350    -1.0640     2.8370 cc         1 8ZQ      -0.262000
     29 CAE        -11.2170    -1.7150     3.4020 c          1 8ZQ       0.714700
     30 OBH        -11.8760    -1.1460     4.2540 o          1 8ZQ      -0.575100
     31 NAD        -11.5760    -2.9420     2.9800 ns         1 8ZQ      -0.479100
     32 CAC        -12.7710    -3.5160     3.4310 ca         1 8ZQ       0.058600
     33 CAB        -13.0160    -3.6300     4.7940 ca         1 8ZQ       0.043400
     34 Cl         -11.8430    -3.0610     5.9400 cl         1 8ZQ      -0.079400
     35 CBM        -14.1960    -4.1960     5.2370 ca         1 8ZQ      -0.116000
     36 CBL        -15.1320    -4.6500     4.3240 ca         1 8ZQ      -0.124000
     37 CBK        -14.8890    -4.5390     2.9670 ca         1 8ZQ      -0.118000
     38 CBI        -13.7130    -3.9680     2.5180 ca         1 8ZQ      -0.095300
     39 CBJ        -13.4530    -3.8410     1.0400 c3         1 8ZQ      -0.045800
     40 H1          -0.3600     0.0180    -1.0210 hc         1 8ZQ       0.055200
     41 H2          -0.3600    -0.8900     0.5010 hc         1 8ZQ       0.055200
     42 H3           1.8900     0.8860    -0.5090 h1         1 8ZQ       0.035450
     43 H4           1.8900    -0.8860    -0.5090 h1         1 8ZQ       0.035450
     44 H5           3.0210    -0.0470     1.3830 hn         1 8ZQ       0.355800
     45 H7           1.9890     1.1890     3.1070 h1         1 8ZQ       0.035450
     46 H8           1.9470     2.0840     1.5780 h1         1 8ZQ       0.035450
     47 H9          -0.2580     2.1410     2.6780 hc         1 8ZQ       0.055200
     48 H10         -0.3000     0.3690     2.6950 hc         1 8ZQ       0.055200
     49 H11         -0.1730     2.1310     0.2200 h1         1 8ZQ       0.077700
     50 H12         -2.4590     0.3490     0.6960 hn         1 8ZQ       0.313500
     51 H13         -4.2640     0.2020     0.8030 ha         1 8ZQ       0.125000
     52 H14         -4.3250     4.4820     1.1100 ha         1 8ZQ       0.164000
     53 H15         -5.8330     5.4820     2.9560 ha         1 8ZQ       0.138000
     54 H16         -7.1020     7.5800     3.1820 ha         1 8ZQ       0.131000
     55 H17         -8.9810     8.0620     1.6640 ha         1 8ZQ       0.129000
     56 H18         -9.6010     6.4540    -0.0940 ha         1 8ZQ       0.132000
     57 H19         -9.3770     3.9620    -0.7670 hn         1 8ZQ       0.430300
     58 H20         -7.6980     3.6820    -1.0960 hn         1 8ZQ       0.430300
     59 H21         -7.9970     2.2700     1.1180 ha         1 8ZQ       0.169000
     60 H22         -6.5750    -0.8200     0.2420 hn         1 8ZQ       0.461800
     61 H23        -10.0320     0.8060     3.9140 h4         1 8ZQ       0.071100
     62 H24        -11.0410    -3.4000     2.2680 hn         1 8ZQ       0.323500
     63 H25        -14.3890    -4.2850     6.2990 ha         1 8ZQ       0.147000
     64 H26        -16.0560    -5.0960     4.6740 ha         1 8ZQ       0.137000
     65 H27        -15.6250    -4.8940     2.2560 ha         1 8ZQ       0.136000
     66 H28        -14.2970    -4.2390     0.4890 hc         1 8ZQ       0.045033
     67 H29        -13.3170    -2.7970     0.7860 hc         1 8ZQ       0.045033
     68 H30        -12.5590    -4.3950     0.7810 hc         1 8ZQ       0.045033
@<TRIPOS>BOND
     1     2     1 1   
     2     2     3 1   
     3     4     3 1   
     4     4     5 1   
     5     1     6 1   
     6     9     8 2   
     7     6     5 1   
     8     6     7 1   
     9     8     7 1   
    10     8    10 1   
    11    11    10 ar  
    12    11    22 ar  
    13    10    12 ar  
    14    23    22 1   
    15    23    24 1   
    16    26    24 2   
    17    26    27 1   
    18    22    21 ar  
    19    12    13 ar  
    20    24    25 1   
    21    27    28 2   
    22    21    13 ar  
    23    13    14 1   
    24    28    25 1   
    25    28    29 1   
    26    14    19 ar  
    27    14    15 ar  
    28    20    19 1   
    29    39    38 1   
    30    31    29 1   
    31    31    32 1   
    32    29    30 2   
    33    19    18 ar  
    34    15    16 ar  
    35    38    32 ar  
    36    38    37 ar  
    37    32    33 ar  
    38    18    17 ar  
    39    16    17 ar  
    40    34    33 1   
    41    33    35 ar  
    42    37    36 ar  
    43    36    35 ar  
    44     1    40 1   
    45     1    41 1   
    46     2    42 1   
    47     2    43 1   
    48     3    44 1   
    49     4    45 1   
    50     4    46 1   
    51     5    47 1   
    52     5    48 1   
    53     6    49 1   
    54     7    50 1   
    55    11    51 1   
    56    12    52 1   
    57    15    53 1   
    58    16    54 1   
    59    17    55 1   
    60    18    56 1   
    61    20    57 1   
    62    20    58 1   
    63    21    59 1   
    64    23    60 1   
    65    27    61 1   
    66    31    62 1   
    67    35    63 1   
    68    36    64 1   
    69    37    65 1   
    70    39    66 1   
    71    39    67 1   
    72    39    68 1   
@<TRIPOS>SUBSTRUCTURE
     1 8ZQ         1 TEMP              0 ****  ****    0 ROOT
