@<TRIPOS>MOLECULE
8ZQ
   68    72     1     0     0
SMALL
bcc


@<TRIPOS>ATOM
      1 CAZ          0.0000     0.0000     0.0000 c3         1 8ZQ      -0.040400
      2 CBA          1.5300     0.0000     0.0000 c3         1 8ZQ       0.153300
      3 NBB          2.0210     0.0000     1.3830 n7         1 8ZQ      -0.583200
      4 CBC          1.5880     1.2060     2.1010 c3         1 8ZQ       0.153300
      5 CBD          0.0600     1.2420     2.1640 c3         1 8ZQ      -0.040400
      6 CAY         -0.5060     1.2410     0.7400 c3         1 8ZQ       0.016700
      7 NAX         -1.9690     1.2170     0.7940 ns         1 8ZQ      -0.192900
      8 CAW         -2.6580     2.3690     0.9210 c          1 8ZQ       0.597700
      9 OBE         -2.0650     3.4270     0.9900 o          1 8ZQ      -0.647100
     10 CAV         -4.1360     2.3450     0.9750 ca         1 8ZQ      -0.137600
     11 CBF         -4.8180     1.1290     0.9010 ca         1 8ZQ      -0.117000
     12 CAU         -4.8490     3.5340     1.1060 ca         1 8ZQ      -0.039000
     13 CAM         -6.2390     3.5080     1.1580 cp         1 8ZQ      -0.009000
     14 CAN         -7.0020     4.7720     1.2970 cp         1 8ZQ      -0.101000
     15 CAO         -6.6580     5.6910     2.2860 ca         1 8ZQ      -0.049000
     16 CAP         -7.3700     6.8670     2.4120 ca         1 8ZQ      -0.142000
     17 CAQ         -8.4260     7.1380     1.5580 ca         1 8ZQ      -0.061000
     18 CAR         -8.7750     6.2350     0.5720 ca         1 8ZQ      -0.163000
     19 CAS         -8.0650     5.0510     0.4310 ca         1 8ZQ       0.060600
     20 NAT         -8.4130     4.1410    -0.5670 nv         1 8ZQ      -0.493200
     21 CAL         -6.9150     2.2910     1.0780 ca         1 8ZQ      -0.075000
     22 CAK         -6.2030     1.1070     0.9520 ca         1 8ZQ      -0.027400
     23 NAJ         -6.8850    -0.1110     0.8770 nu         1 8ZQ      -0.253300
     24 CAI         -8.0090    -0.3220     1.6500 cc         1 8ZQ       0.564300
     25 SBG         -8.9700    -1.7360     1.6060 ss         1 8ZQ      -0.331300
     26 NAH         -8.4820     0.5250     2.5180 nd         1 8ZQ      -0.665000
     27 CAG         -9.5590     0.1730     3.1730 cd         1 8ZQ       0.497200
     28 CAF        -10.0350    -1.0640     2.8370 cc         1 8ZQ      -0.247000
     29 CAE        -11.2170    -1.7150     3.4020 c          1 8ZQ       0.633700
     30 OBH        -11.8760    -1.1460     4.2540 o          1 8ZQ      -0.628100
     31 NAD        -11.5760    -2.9420     2.9800 ns         1 8ZQ      -0.044100
     32 CAC        -12.7710    -3.5160     3.4310 ca         1 8ZQ      -0.086400
     33 CAB        -13.0160    -3.6300     4.7940 ca         1 8ZQ      -0.019600
     34 Cl         -11.8430    -3.0610     5.9400 cl         1 8ZQ       0.013600
     35 CBM        -14.1960    -4.1960     5.2370 ca         1 8ZQ      -0.095000
     36 CBL        -15.1320    -4.6500     4.3240 ca         1 8ZQ      -0.090000
     37 CBK        -14.8890    -4.5390     2.9670 ca         1 8ZQ      -0.093000
     38 CBI        -13.7130    -3.9680     2.5180 ca         1 8ZQ      -0.096300
     39 CBJ        -13.4530    -3.8410     1.0400 c3         1 8ZQ       0.062200
     40 H1          -0.3600     0.0180    -1.0210 hc         1 8ZQ       0.025950
     41 H2          -0.3600    -0.8900     0.5010 hc         1 8ZQ       0.025950
     42 H3           1.8900     0.8860    -0.5090 h1         1 8ZQ       0.008200
     43 H4           1.8900    -0.8860    -0.5090 h1         1 8ZQ       0.008200
     44 H5           3.0210    -0.0470     1.3830 hn         1 8ZQ       0.253800
     45 H7           1.9890     1.1890     3.1070 h1         1 8ZQ       0.008200
     46 H8           1.9470     2.0840     1.5780 h1         1 8ZQ       0.008200
     47 H9          -0.2580     2.1410     2.6780 hc         1 8ZQ       0.025950
     48 H10         -0.3000     0.3690     2.6950 hc         1 8ZQ       0.025950
     49 H11         -0.1730     2.1310     0.2200 h1         1 8ZQ       0.056700
     50 H12         -2.4590     0.3490     0.6960 hn         1 8ZQ       0.177500
     51 H13         -4.2640     0.2020     0.8030 ha         1 8ZQ       0.105000
     52 H14         -4.3250     4.4820     1.1100 ha         1 8ZQ       0.136000
     53 H15         -5.8330     5.4820     2.9560 ha         1 8ZQ       0.109000
     54 H16         -7.1020     7.5800     3.1820 ha         1 8ZQ       0.105000
     55 H17         -8.9810     8.0620     1.6640 ha         1 8ZQ       0.099000
     56 H18         -9.6010     6.4540    -0.0940 ha         1 8ZQ       0.108000
     57 H19         -9.3770     3.9620    -0.7670 hn         1 8ZQ       0.271300
     58 H20         -7.6980     3.6820    -1.0960 hn         1 8ZQ       0.271300
     59 H21         -7.9970     2.2700     1.1180 ha         1 8ZQ       0.142000
     60 H22         -6.5750    -0.8200     0.2420 hn         1 8ZQ       0.288800
     61 H23        -10.0320     0.8060     3.9140 h4         1 8ZQ       0.020100
     62 H24        -11.0410    -3.4000     2.2680 hn         1 8ZQ       0.174500
     63 H25        -14.3890    -4.2850     6.2990 ha         1 8ZQ       0.116000
     64 H26        -16.0560    -5.0960     4.6740 ha         1 8ZQ       0.105000
     65 H27        -15.6250    -4.8940     2.2560 ha         1 8ZQ       0.108000
     66 H28        -14.2970    -4.2390     0.4890 hc         1 8ZQ       0.009700
     67 H29        -13.3170    -2.7970     0.7860 hc         1 8ZQ       0.009700
     68 H30        -12.5590    -4.3950     0.7810 hc         1 8ZQ       0.009700
@<TRIPOS>BOND
     1     1     2 1   
     2     1     6 1   
     3     1    40 1   
     4     1    41 1   
     5     2     3 1   
     6     2    42 1   
     7     2    43 1   
     8     3     4 1   
     9     3    44 1   
    10     4     5 1   
    11     4    45 1   
    12     4    46 1   
    13     5     6 1   
    14     5    47 1   
    15     5    48 1   
    16     6     7 1   
    17     6    49 1   
    18     7     8 1   
    19     7    50 1   
    20     8     9 2   
    21     8    10 1   
    22    10    11 ar  
    23    10    12 ar  
    24    11    22 ar  
    25    11    51 1   
    26    12    13 ar  
    27    12    52 1   
    28    13    14 1   
    29    13    21 ar  
    30    14    15 ar  
    31    14    19 ar  
    32    15    16 ar  
    33    15    53 1   
    34    16    17 ar  
    35    16    54 1   
    36    17    18 ar  
    37    17    55 1   
    38    18    19 ar  
    39    18    56 1   
    40    19    20 1   
    41    20    57 1   
    42    20    58 1   
    43    21    22 ar  
    44    21    59 1   
    45    22    23 1   
    46    23    24 1   
    47    23    60 1   
    48    24    25 1   
    49    24    26 2   
    50    25    28 1   
    51    26    27 1   
    52    27    28 2   
    53    27    61 1   
    54    28    29 1   
    55    29    30 2   
    56    29    31 1   
    57    31    32 1   
    58    31    62 1   
    59    32    33 ar  
    60    32    38 ar  
    61    33    34 1   
    62    33    35 ar  
    63    35    36 ar  
    64    35    63 1   
    65    36    37 ar  
    66    36    64 1   
    67    37    38 ar  
    68    37    65 1   
    69    38    39 1   
    70    39    66 1   
    71    39    67 1   
    72    39    68 1   
@<TRIPOS>SUBSTRUCTURE
     1 8ZQ         1 TEMP              0 ****  ****    0 ROOT
