@<TRIPOS>MOLECULE
molecule
   40    42     1     0     0
SMALL
bcc


@<TRIPOS>ATOM
      1 C10          0.0000     0.0000     0.0000 ca         1 8ZS      -0.091500
      2 C13          1.6680     0.0030    -4.9260 cc         1 8ZS      -0.231200
      3 C17         -1.4560    -0.5830    -8.5230 c3         1 8ZS       0.123400
      4 C21          2.8230     0.0030    -5.7520 cc         1 8ZS      -0.121000
      5 C22          3.9010     0.0020    -4.9490 cd         1 8ZS      -0.196100
      6 C02          4.2130    -0.0000    -2.4670 cd         1 8ZS       0.185800
      7 C03          3.5450    -0.0000    -1.2790 cc         1 8ZS      -0.316300
      8 C04          2.1390     0.0000    -1.2820 cc         1 8ZS       0.513800
      9 C05          1.3950     0.0000     0.0000 ca         1 8ZS      -0.158500
     10 C06          2.0870     0.0000     1.2110 ca         1 8ZS      -0.091500
     11 C07          1.3900     0.0000     2.4010 ca         1 8ZS      -0.137500
     12 C08          0.0050    -0.0000     2.3950 ca         1 8ZS      -0.111000
     13 C09         -0.6860     0.0010     1.1970 ca         1 8ZS      -0.137500
     14 N11          1.4780    -0.0010    -2.4310 nd         1 8ZS      -0.632000
     15 C12          2.1270     0.0010    -3.5960 cd         1 8ZS       0.447500
     16 N15          0.0300     0.0150    -6.6730 ns         1 8ZS      -0.583900
     17 C16         -1.3660     0.0210    -7.1200 c3         1 8ZS       0.125700
     18 C19         -1.8850     1.4600    -7.1490 c3         1 8ZS      -0.102100
     19 N23          3.4970     0.0000    -3.6380 na         1 8ZS      -0.101100
     20 H101        -0.5430     0.0010    -0.9370 ha         1 8ZS       0.148500
     21 H171        -1.0070    -1.5690    -8.5220 h1         1 8ZS       0.028700
     22 H172        -2.4950    -0.6600    -8.8170 h1         1 8ZS       0.028700
     23 H211         2.8340     0.0850    -6.8320 ha         1 8ZS       0.158000
     24 H221         4.9310     0.0020    -5.2850 h4         1 8ZS       0.177000
     25 H011         5.8850    -0.8340    -2.1890 ho         1 8ZS       0.442000
     26 H031         4.0850     0.1560    -0.3540 ha         1 8ZS       0.166000
     27 H061         3.1700     0.0000     1.2170 ha         1 8ZS       0.148500
     28 H071         1.9260    -0.0000     3.3420 ha         1 8ZS       0.134000
     29 H081        -0.5380    -0.0000     3.3320 ha         1 8ZS       0.131000
     30 H091        -1.7690     0.0000     1.1990 ha         1 8ZS       0.134000
     31 H151         0.7700     0.0050    -7.3470 hn         1 8ZS       0.318500
     32 H161        -1.9660    -0.5660    -6.4350 h1         1 8ZS       0.082700
     33 H181        -0.8070    -0.1200   -10.3100 ho         1 8ZS       0.402000
     34 H192        -1.1350     2.1060    -7.5880 hc         1 8ZS       0.044700
     35 H193        -2.0970     1.7880    -6.1380 hc         1 8ZS       0.044700
     36 H191        -2.7920     1.5050    -7.7400 hc         1 8ZS       0.044700
     37 C14          0.3170     0.0090    -5.3570 c          1 8ZS       0.707300
     38 O01          5.5650    -0.0000    -2.4930 oh         1 8ZS      -0.498100
     39 O18         -0.7600     0.2560    -9.4470 oh         1 8ZS      -0.613800
     40 O20         -0.5830     0.0070    -4.5370 o          1 8ZS      -0.612100
@<TRIPOS>BOND
     1     3    17 1   
     2     3    39 1   
     3    17    18 1   
     4    17    16 1   
     5    40    37 2   
     6    16    37 1   
     7    37     2 1   
     8     2     4 1   
     9     2    15 2   
    10     4     5 2   
    11    15    14 1   
    12    15    19 1   
    13    14     8 2   
    14    10    11 ar  
    15    10     9 ar  
    16    11    12 ar  
    17     5    19 1   
    18    19     6 1   
    19     8     9 1   
    20     8     7 1   
    21     9     1 ar  
    22    12    13 ar  
    23     6     7 2   
    24     6    38 1   
    25     1    13 ar  
    26     1    20 1   
    27     3    21 1   
    28     3    22 1   
    29     4    23 1   
    30     5    24 1   
    31    38    25 1   
    32     7    26 1   
    33    10    27 1   
    34    11    28 1   
    35    12    29 1   
    36    13    30 1   
    37    16    31 1   
    38    17    32 1   
    39    39    33 1   
    40    18    34 1   
    41    18    35 1   
    42    18    36 1   
@<TRIPOS>SUBSTRUCTURE
     1 8ZS         1 TEMP              0 ****  ****    0 ROOT
