@<TRIPOS>MOLECULE
8ZS
   40    42     1     0     0
SMALL
bcc


@<TRIPOS>ATOM
      1 C10          0.0000     0.0000     0.0000 ca         1 8ZS      -0.075500
      2 C13          1.6680     0.0030    -4.9260 cc         1 8ZS      -0.252200
      3 C17         -1.4560    -0.5830    -8.5230 c3         1 8ZS       0.210400
      4 C21          2.8230     0.0030    -5.7520 cc         1 8ZS      -0.072000
      5 C22          3.9010     0.0020    -4.9490 cd         1 8ZS      -0.381100
      6 C02          4.2130    -0.0000    -2.4670 cc         1 8ZS      -0.011200
      7 C03          3.5450    -0.0000    -1.2790 cd         1 8ZS      -0.270300
      8 C04          2.1390     0.0000    -1.2820 cd         1 8ZS       0.431800
      9 C05          1.3950     0.0000     0.0000 ca         1 8ZS      -0.159500
     10 C06          2.0870     0.0000     1.2110 ca         1 8ZS      -0.075500
     11 C07          1.3900     0.0000     2.4010 ca         1 8ZS      -0.108000
     12 C08          0.0050    -0.0000     2.3950 ca         1 8ZS      -0.089000
     13 C09         -0.6860     0.0010     1.1970 ca         1 8ZS      -0.108000
     14 N11          1.4780    -0.0010    -2.4310 nd         1 8ZS      -0.478000
     15 C12          2.1270     0.0010    -3.5960 cd         1 8ZS       0.209500
     16 N15          0.0300     0.0150    -6.6730 ns         1 8ZS      -0.198900
     17 C16         -1.3660     0.0210    -7.1200 c3         1 8ZS       0.016700
     18 C19         -1.8850     1.4600    -7.1490 c3         1 8ZS      -0.012100
     19 N23          3.4970     0.0000    -3.6380 na         1 8ZS       0.459900
     20 H101        -0.5430     0.0010    -0.9370 ha         1 8ZS       0.121000
     21 H171        -1.0070    -1.5690    -8.5220 h1         1 8ZS      -0.008300
     22 H172        -2.4950    -0.6600    -8.8170 h1         1 8ZS      -0.008300
     23 H211         2.8340     0.0850    -6.8320 ha         1 8ZS       0.128000
     24 H221         4.9310     0.0020    -5.2850 h4         1 8ZS       0.158000
     25 H011         5.8850    -0.8340    -2.1890 ho         1 8ZS       0.418000
     26 H031         4.0850     0.1560    -0.3540 ha         1 8ZS       0.146000
     27 H061         3.1700     0.0000     1.2170 ha         1 8ZS       0.121000
     28 H071         1.9260    -0.0000     3.3420 ha         1 8ZS       0.104000
     29 H081        -0.5380    -0.0000     3.3320 ha         1 8ZS       0.101000
     30 H091        -1.7690     0.0000     1.1990 ha         1 8ZS       0.104000
     31 H151         0.7700     0.0050    -7.3470 hn         1 8ZS       0.181500
     32 H161        -1.9660    -0.5660    -6.4350 h1         1 8ZS       0.057700
     33 H181        -0.8070    -0.1200   -10.3100 ho         1 8ZS       0.391000
     34 H192        -1.1350     2.1060    -7.5880 hc         1 8ZS       0.013367
     35 H193        -2.0970     1.7880    -6.1380 hc         1 8ZS       0.013367
     36 H191        -2.7920     1.5050    -7.7400 hc         1 8ZS       0.013367
     37 C14          0.3170     0.0090    -5.3570 c          1 8ZS       0.633300
     38 O01          5.5650    -0.0000    -2.4930 oh         1 8ZS      -0.475100
     39 O18         -0.7600     0.2560    -9.4470 oh         1 8ZS      -0.596800
     40 O20         -0.5830     0.0070    -4.5370 o          1 8ZS      -0.654100
@<TRIPOS>BOND
     1     1     9 ar  
     2     1    13 ar  
     3     1    20 1   
     4     2     4 1   
     5     2    15 2   
     6     2    37 1   
     7     3    17 1   
     8     3    21 1   
     9     3    22 1   
    10     3    39 1   
    11     4     5 2   
    12     4    23 1   
    13     5    19 1   
    14     5    24 1   
    15     6     7 2   
    16     6    19 1   
    17     6    38 1   
    18     7     8 1   
    19     7    26 1   
    20     8     9 1   
    21     8    14 2   
    22     9    10 ar  
    23    10    11 ar  
    24    10    27 1   
    25    11    12 ar  
    26    11    28 1   
    27    12    13 ar  
    28    12    29 1   
    29    13    30 1   
    30    14    15 1   
    31    15    19 1   
    32    16    17 1   
    33    16    31 1   
    34    16    37 1   
    35    17    18 1   
    36    17    32 1   
    37    18    34 1   
    38    18    35 1   
    39    18    36 1   
    40    25    38 1   
    41    33    39 1   
    42    37    40 2   
@<TRIPOS>SUBSTRUCTURE
     1 8ZS         1 TEMP              0 ****  ****    0 ROOT
