@<TRIPOS>MOLECULE
8ZT
   63    67     1     0     0
SMALL
bcc


@<TRIPOS>ATOM
      1 CAL          0.0000     0.0000     0.0000 c3         1 8ZT       0.093050
      2 CAM          1.5310     0.0000     0.0000 c3         1 8ZT       0.213150
      3 OAN          2.0030     0.0000     1.3500 os         1 8ZT      -0.409100
      4 CAO          1.5500    -1.1190     2.1180 c3         1 8ZT       0.213150
      5 CAP          0.0190    -1.1310     2.1390 c3         1 8ZT       0.093050
      6 NAK         -0.4840    -1.1620     0.7580 nh         1 8ZT      -0.357000
      7 CAJ         -1.8790    -1.2290     0.7360 ca         1 8ZT       0.069100
      8 CAI         -2.6090    -0.2680     0.0480 ca         1 8ZT      -0.216000
      9 CAQ         -2.5360    -2.2580     1.3960 ca         1 8ZT      -0.170000
     10 CAR         -3.9230    -2.3230     1.3740 ca         1 8ZT       0.069100
     11 NAS         -4.5840    -3.3580     2.0390 nh         1 8ZT      -0.357000
     12 CAT         -6.0410    -3.2370     1.8870 c3         1 8ZT       0.093050
     13 CAU         -6.7220    -4.4210     2.5790 c3         1 8ZT       0.213150
     14 OAV         -6.3220    -4.4590     3.9520 os         1 8ZT      -0.409100
     15 CAW         -4.9080    -4.5780     4.1360 c3         1 8ZT       0.213150
     16 CAX         -4.2090    -3.3950     3.4600 c3         1 8ZT       0.093050
     17 CAY         -4.6530    -1.3600     0.6910 ca         1 8ZT      -0.216000
     18 CAH         -3.9960    -0.3340     0.0260 ca         1 8ZT       0.033600
     19 NAG         -4.7300     0.6330    -0.6660 nu         1 8ZT      -0.234300
     20 CAF         -6.0220     0.9230    -0.2830 cc         1 8ZT       0.564300
     21 SAZ         -7.0830     1.9570    -1.1350 ss         1 8ZT      -0.327300
     22 NAE         -6.6080     0.4420     0.7770 nd         1 8ZT      -0.673000
     23 CAD         -7.8420     0.8160     1.0020 cd         1 8ZT       0.492200
     24 CAC         -8.3430     1.6750     0.0640 cc         1 8ZT      -0.244000
     25 CAB         -9.6850     2.2560     0.0560 c          1 8ZT       0.631700
     26 OAA        -10.4710     1.9820     0.9450 o          1 8ZT      -0.628100
     27 NBA        -10.0510     3.0930    -0.9340 ns         1 8ZT      -0.043100
     28 CBB        -11.2910     3.7390    -0.8810 ca         1 8ZT      -0.088400
     29 CBC        -12.4530     3.0020    -0.6760 ca         1 8ZT      -0.021600
     30 ClB        -12.3670     1.2790    -0.4850 cl         1 8ZT       0.016600
     31 CBE        -13.6750     3.6440    -0.6240 ca         1 8ZT      -0.096000
     32 CBF        -13.7450     5.0170    -0.7760 ca         1 8ZT      -0.089000
     33 CBG        -12.5910     5.7520    -0.9800 ca         1 8ZT      -0.094000
     34 CBH        -11.3650     5.1170    -1.0260 ca         1 8ZT      -0.093300
     35 CBI        -10.1080     5.9210    -1.2430 c3         1 8ZT       0.062200
     36 H1          -0.3600    -0.0590    -1.0200 h1         1 8ZT       0.028450
     37 H2          -0.3610     0.9100     0.4650 h1         1 8ZT       0.028450
     38 H3           1.8920    -0.8860    -0.5080 h1         1 8ZT       0.014325
     39 H4           1.8920     0.8860    -0.5080 h1         1 8ZT       0.014325
     40 H5           1.9230    -1.0360     3.1310 h1         1 8ZT       0.014325
     41 H6           1.9110    -2.0350     1.6670 h1         1 8ZT       0.014325
     42 H7          -0.3270    -2.0100     2.6690 h1         1 8ZT       0.028450
     43 H8          -0.3420    -0.2370     2.6340 h1         1 8ZT       0.028450
     44 H9          -2.0960     0.5330    -0.4710 ha         1 8ZT       0.147000
     45 H10         -1.9660    -3.0170     1.9180 ha         1 8ZT       0.127000
     46 H11         -6.2950    -3.2400     0.8340 h1         1 8ZT       0.028450
     47 H12         -6.3750    -2.3130     2.3420 h1         1 8ZT       0.028450
     48 H13         -7.7970    -4.3030     2.5190 h1         1 8ZT       0.014325
     49 H14         -6.4260    -5.3420     2.0910 h1         1 8ZT       0.014325
     50 H15         -4.6810    -4.5740     5.1950 h1         1 8ZT       0.014325
     51 H16         -4.5630    -5.5030     3.6910 h1         1 8ZT       0.014325
     52 H17         -3.1360    -3.5130     3.5470 h1         1 8ZT       0.028450
     53 H18         -4.5170    -2.4730     3.9380 h1         1 8ZT       0.028450
     54 H19         -5.7350    -1.4110     0.6730 ha         1 8ZT       0.147000
     55 H20         -4.3200     1.1090    -1.4450 hn         1 8ZT       0.288800
     56 H21         -8.4150     0.4750     1.8550 h4         1 8ZT       0.019100
     57 H22         -9.4380     3.2500    -1.7090 hn         1 8ZT       0.175500
     58 H23        -14.5810     3.0700    -0.4650 ha         1 8ZT       0.115000
     59 H24        -14.7050     5.5170    -0.7380 ha         1 8ZT       0.105000
     60 H25        -12.6490     6.8270    -1.0960 ha         1 8ZT       0.108000
     61 H26         -9.4400     5.7810    -0.4020 hc         1 8ZT       0.009700
     62 H27         -9.6200     5.5890    -2.1510 hc         1 8ZT       0.009700
     63 H28        -10.3620     6.9700    -1.3320 hc         1 8ZT       0.009700
@<TRIPOS>BOND
     1     1     2 1   
     2     1     6 1   
     3     1    36 1   
     4     1    37 1   
     5     2     3 1   
     6     2    38 1   
     7     2    39 1   
     8     3     4 1   
     9     4     5 1   
    10     4    40 1   
    11     4    41 1   
    12     5     6 1   
    13     5    42 1   
    14     5    43 1   
    15     6     7 1   
    16     7     8 ar  
    17     7     9 ar  
    18     8    18 ar  
    19     8    44 1   
    20     9    10 ar  
    21     9    45 1   
    22    10    11 1   
    23    10    17 ar  
    24    11    12 1   
    25    11    16 1   
    26    12    13 1   
    27    12    46 1   
    28    12    47 1   
    29    13    14 1   
    30    13    48 1   
    31    13    49 1   
    32    14    15 1   
    33    15    16 1   
    34    15    50 1   
    35    15    51 1   
    36    16    52 1   
    37    16    53 1   
    38    17    18 ar  
    39    17    54 1   
    40    18    19 1   
    41    19    20 1   
    42    19    55 1   
    43    20    21 1   
    44    20    22 2   
    45    21    24 1   
    46    22    23 1   
    47    23    24 2   
    48    23    56 1   
    49    24    25 1   
    50    25    26 2   
    51    25    27 1   
    52    27    28 1   
    53    27    57 1   
    54    28    29 ar  
    55    28    34 ar  
    56    29    30 1   
    57    29    31 ar  
    58    31    32 ar  
    59    31    58 1   
    60    32    33 ar  
    61    32    59 1   
    62    33    34 ar  
    63    33    60 1   
    64    34    35 1   
    65    35    61 1   
    66    35    62 1   
    67    35    63 1   
@<TRIPOS>SUBSTRUCTURE
     1 8ZT         1 TEMP              0 ****  ****    0 ROOT
