@<TRIPOS>MOLECULE
molecule
   78    80     1     0     0
SMALL
bcc


@<TRIPOS>ATOM
      1 C11          0.0000     0.0000     0.0000 c3         1 8ZV       0.132400
      2 C16          5.2090     0.0000     3.2760 ca         1 8ZV      -0.158000
      3 C15          3.8380     0.0000     3.0200 ca         1 8ZV      -0.075600
      4 C14          3.3440     0.0010     1.6260 c          1 8ZV       0.675700
      5 C12          1.5300     0.0000     0.0000 c3         1 8ZV       0.113000
      6 C17          5.6670    -0.0000     4.5830 ca         1 8ZV       0.173100
      7 C04         -4.1490     4.4060     0.7370 c3         1 8ZV       0.239800
      8 C05         -4.8530     4.0590     2.0520 c3         1 8ZV      -0.103400
      9 C06         -3.8130     3.5910     3.0740 c3         1 8ZV      -0.075400
     10 C07         -3.1140     2.3340     2.5530 c3         1 8ZV      -0.089400
     11 C08         -2.3910     2.6620     1.2440 c3         1 8ZV       0.206500
     12 C09         -1.8150     1.4000     0.6540 c          1 8ZV       0.657100
     13 C19          7.4050    -0.0010     6.2050 c3         1 8ZV       0.141400
     14 C20          8.9340    -0.0010     6.2880 c3         1 8ZV       0.138900
     15 C22         10.8650     1.3220     5.7750 c3         1 8ZV       0.128700
     16 C23          4.7640    -0.0010     5.6370 ca         1 8ZV      -0.302000
     17 C24          3.4000    -0.0010     5.3870 ca         1 8ZV       0.173100
     18 C26          3.0700    -0.0030     7.7410 c3         1 8ZV       0.141400
     19 C27          1.9350    -0.0050     8.7670 c3         1 8ZV       0.138900
     20 C29          0.1120    -1.3290     9.5830 c3         1 8ZV       0.128700
     21 C30          2.9340    -0.0000     4.0820 ca         1 8ZV      -0.158000
     22 C33         -4.7780     1.3030    -1.0070 c3         1 8ZV      -0.165300
     23 C34         -5.0380     0.6430    -2.3370 ca         1 8ZV      -0.087300
     24 C35         -6.0300     1.1310    -3.1680 ca         1 8ZV      -0.108500
     25 C36         -6.2660     0.5290    -4.3900 ca         1 8ZV      -0.128500
     26 C37         -5.5100    -0.5600    -4.7820 ca         1 8ZV      -0.120000
     27 C38         -4.5180    -1.0470    -3.9510 ca         1 8ZV      -0.128500
     28 C39         -4.2830    -0.4460    -2.7290 ca         1 8ZV      -0.108500
     29 N03         -3.3540     3.2500     0.3030 n3         1 8ZV      -0.811500
     30 N13          2.0190     0.0000     1.3810 ns         1 8ZV      -0.582900
     31 O01         -2.2720     2.0640    -1.5270 o          1 8ZV      -0.628800
     32 O10         -0.4840     1.2410     0.5790 os         1 8ZV      -0.404900
     33 O18          7.0030    -0.0000     4.8340 os         1 8ZV      -0.313900
     34 O21          9.4400     1.2200     5.7460 os         1 8ZV      -0.419600
     35 O25          2.5200    -0.0030     6.4220 os         1 8ZV      -0.313900
     36 O28          1.2000    -1.2260     8.6630 os         1 8ZV      -0.419600
     37 O31          4.1340     0.0000     0.7010 o          1 8ZV      -0.603100
     38 O32         -2.5510     0.5310     0.2500 o          1 8ZV      -0.585000
     39 O40         -4.0820     3.6890    -1.9780 o          1 8ZV      -0.628800
     40 S02         -3.5440     2.6170    -1.2160 s6         1 8ZV       1.336900
     41 H1          -0.3610    -0.0890    -1.0180 h1         1 8ZV       0.064700
     42 H2          -0.3610    -0.8370     0.5850 h1         1 8ZV       0.064700
     43 H3           5.9140     0.0010     2.4540 ha         1 8ZV       0.155500
     44 H4           1.8910    -0.8840    -0.5110 h1         1 8ZV       0.071200
     45 H5           1.8910     0.8840    -0.5110 h1         1 8ZV       0.071200
     46 H6          -4.8890     4.6400    -0.0190 h1         1 8ZV       0.064700
     47 H7          -3.4960     5.2570     0.8890 h1         1 8ZV       0.064700
     48 H8          -5.5700     3.2650     1.8790 hc         1 8ZV       0.050700
     49 H9          -5.3620     4.9370     2.4310 hc         1 8ZV       0.050700
     50 H10         -4.3060     3.3650     4.0120 hc         1 8ZV       0.048700
     51 H11         -3.0800     4.3740     3.2250 hc         1 8ZV       0.048700
     52 H12         -3.8500     1.5600     2.3740 hc         1 8ZV       0.058700
     53 H13         -2.3930     1.9920     3.2860 hc         1 8ZV       0.058700
     54 H14         -1.5960     3.3730     1.4380 h1         1 8ZV       0.082700
     55 H15          7.0170     0.8830     6.6960 h1         1 8ZV       0.044200
     56 H16          7.0170    -0.8860     6.6950 h1         1 8ZV       0.044200
     57 H17          9.3260    -0.8380     5.7230 h1         1 8ZV       0.036700
     58 H18          9.2390    -0.0910     7.3240 h1         1 8ZV       0.036700
     59 H19         11.2970     0.5100     5.2040 h1         1 8ZV       0.031367
     60 H20         11.1690     2.2680     5.3440 h1         1 8ZV       0.031367
     61 H21         11.2110     1.2650     6.8010 h1         1 8ZV       0.031367
     62 H22          5.1260    -0.0020     6.6580 ha         1 8ZV       0.139000
     63 H23          3.6810    -0.8870     7.8780 h1         1 8ZV       0.044200
     64 H24          3.6800     0.8820     7.8790 h1         1 8ZV       0.044200
     65 H25          2.3490     0.0840     9.7640 h1         1 8ZV       0.036700
     66 H26          1.2740     0.8320     8.5760 h1         1 8ZV       0.036700
     67 H27          0.4910    -1.2900    10.5970 h1         1 8ZV       0.031367
     68 H28         -0.4050    -2.2680     9.4260 h1         1 8ZV       0.031367
     69 H29         -0.5750    -0.5070     9.4220 h1         1 8ZV       0.031367
     70 H30          1.8680    -0.0000     3.8870 ha         1 8ZV       0.155500
     71 H31         -4.4050     0.5660    -0.3060 h1         1 8ZV       0.116700
     72 H32         -5.6990     1.7290    -0.6290 h1         1 8ZV       0.116700
     73 H33         -6.6220     1.9850    -2.8610 ha         1 8ZV       0.141000
     74 H34         -7.0430     0.9110    -5.0410 ha         1 8ZV       0.132000
     75 H35         -5.6950    -1.0310    -5.7390 ha         1 8ZV       0.130000
     76 H36         -3.9260    -1.9010    -4.2570 ha         1 8ZV       0.132000
     77 H37         -3.5050    -0.8280    -2.0780 ha         1 8ZV       0.141000
     78 H38          1.3690    -0.0050     2.1420 hn         1 8ZV       0.321500
@<TRIPOS>BOND
     1    39    40 2   
     2    31    40 2   
     3    10    11 1   
     4    10     9 1   
     5    40    29 1   
     6    40    22 1   
     7    11    29 1   
     8    11    12 1   
     9     8     9 1   
    10     8     7 1   
    11    29     7 1   
    12    25    26 ar  
    13    25    24 ar  
    14    26    27 ar  
    15    24    23 ar  
    16    27    28 ar  
    17    23    28 ar  
    18    23    22 1   
    19    12    38 2   
    20    12    32 1   
    21    32     1 1   
    22     1     5 1   
    23    33     6 1   
    24    33    13 1   
    25     2     6 ar  
    26     2     3 ar  
    27     5    30 1   
    28    30     4 1   
    29     6    16 ar  
    30    37     4 2   
    31     4     3 1   
    32     3    21 ar  
    33    34    14 1   
    34    34    15 1   
    35    14    13 1   
    36    16    17 ar  
    37    21    17 ar  
    38    17    35 1   
    39    35    18 1   
    40    18    19 1   
    41    19    36 1   
    42    36    20 1   
    43     1    41 1   
    44     1    42 1   
    45     2    43 1   
    46     5    44 1   
    47     5    45 1   
    48     7    46 1   
    49     7    47 1   
    50     8    48 1   
    51     8    49 1   
    52     9    50 1   
    53     9    51 1   
    54    10    52 1   
    55    10    53 1   
    56    11    54 1   
    57    13    55 1   
    58    13    56 1   
    59    14    57 1   
    60    14    58 1   
    61    15    59 1   
    62    15    60 1   
    63    15    61 1   
    64    16    62 1   
    65    18    63 1   
    66    18    64 1   
    67    19    65 1   
    68    19    66 1   
    69    20    67 1   
    70    20    68 1   
    71    20    69 1   
    72    21    70 1   
    73    22    71 1   
    74    22    72 1   
    75    24    73 1   
    76    25    74 1   
    77    26    75 1   
    78    27    76 1   
    79    28    77 1   
    80    30    78 1   
@<TRIPOS>SUBSTRUCTURE
     1 8ZV         1 TEMP              0 ****  ****    0 ROOT
