@<TRIPOS>MOLECULE
8ZW
   56    59     1     0     0
SMALL
bcc


@<TRIPOS>ATOM
      1 CAO          0.0000     0.0000     0.0000 c3         1 8ZW       0.093300
      2 CAP          1.5310     0.0000     0.0000 c3         1 8ZW       0.214400
      3 OAQ          2.0030     0.0000     1.3500 os         1 8ZW      -0.408600
      4 CAR          1.5490    -1.1170     2.1190 c3         1 8ZW       0.214400
      5 CAS          0.0180    -1.1280     2.1400 c3         1 8ZW       0.093300
      6 NAN         -0.4860    -1.1620     0.7590 nh         1 8ZW      -0.359000
      7 CAM         -1.8810    -1.2270     0.7370 ca         1 8ZW       0.012600
      8 CAL         -2.5940    -1.2460     1.9260 ca         1 8ZW      -0.146000
      9 CAT         -2.5570    -1.2670    -0.4770 ca         1 8ZW      -0.033000
     10 CAU         -3.9360    -1.3310    -0.5000 ca         1 8ZW      -0.113500
     11 SAV         -4.7890    -1.3810    -2.0410 sy         1 8ZW       0.873300
     12 OAW         -6.0670    -0.8330    -1.7520 o          1 8ZW      -0.583300
     13 OAY         -3.9060    -0.7410    -2.9520 o          1 8ZW      -0.583300
     14 CAX         -4.9260    -3.1490    -2.4250 c3         1 8ZW       0.027700
     15 CAZ         -4.6490    -1.3570     0.6830 ca         1 8ZW      -0.022000
     16 CAK         -3.9810    -1.3110     1.9000 ca         1 8ZW      -0.018400
     17 NAJ         -4.7020    -1.3310     3.0970 nu         1 8ZW      -0.257300
     18 CAI         -5.8860    -0.6300     3.2000 cc         1 8ZW       0.556300
     19 SBA         -6.8960    -0.6200     4.5790 ss         1 8ZW      -0.331300
     20 NAH         -6.3880     0.1220     2.2620 nd         1 8ZW      -0.652000
     21 CAG         -7.5230     0.7210     2.5170 cd         1 8ZW       0.502200
     22 CAF         -8.0210     0.4630     3.7640 cc         1 8ZW      -0.246000
     23 CAE         -9.2650     0.9920     4.3210 c          1 8ZW       0.635700
     24 OBB         -9.9610     1.7380     3.6560 o          1 8ZW      -0.626100
     25 NAD         -9.6410     0.6550     5.5700 ns         1 8ZW      -0.049100
     26 CAC        -10.8860     1.0630     6.0610 ca         1 8ZW      -0.088400
     27 CAB        -11.2310     2.4100     6.0500 ca         1 8ZW      -0.019600
     28 ClA        -10.1180     3.5870     5.4280 cl         1 8ZW       0.012600
     29 CBG        -12.4620     2.8090     6.5350 ca         1 8ZW      -0.097000
     30 CBF        -13.3490     1.8710     7.0310 ca         1 8ZW      -0.087000
     31 CBE        -13.0080     0.5310     7.0430 ca         1 8ZW      -0.096000
     32 CBC        -11.7820     0.1240     6.5550 ca         1 8ZW      -0.088300
     33 CBD        -11.4150    -1.3370     6.5620 c3         1 8ZW       0.062200
     34 H1          -0.3600     0.9100     0.4640 h1         1 8ZW       0.028450
     35 H2          -0.3600    -0.0590    -1.0200 h1         1 8ZW       0.028450
     36 H3           1.8920     0.8860    -0.5080 h1         1 8ZW       0.014950
     37 H4           1.8920    -0.8860    -0.5080 h1         1 8ZW       0.014950
     38 H5           1.9230    -1.0320     3.1330 h1         1 8ZW       0.014950
     39 H6           1.9110    -2.0340     1.6700 h1         1 8ZW       0.014950
     40 H7          -0.3420    -0.2340     2.6340 h1         1 8ZW       0.028450
     41 H8          -0.3290    -2.0060     2.6720 h1         1 8ZW       0.028450
     42 H9          -2.0710    -1.2100     2.8740 ha         1 8ZW       0.126000
     43 H10         -1.9990    -1.2760    -1.4060 ha         1 8ZW       0.134000
     44 H11         -5.4740    -3.6490    -1.6350 h1         1 8ZW       0.059367
     45 H12         -5.4510    -3.2750    -3.3640 h1         1 8ZW       0.059367
     46 H13         -3.9350    -3.5790    -2.5050 h1         1 8ZW       0.059367
     47 H14         -5.7310    -1.4070     0.6610 ha         1 8ZW       0.150000
     48 H15         -4.3850    -1.8920     3.8630 hn         1 8ZW       0.289800
     49 H16         -8.0230     1.3650     1.8030 h4         1 8ZW       0.024100
     50 H17         -9.0160     0.1420     6.1590 hn         1 8ZW       0.174500
     51 H18        -12.7330     3.8580     6.5270 ha         1 8ZW       0.115000
     52 H19        -14.3120     2.1870     7.4130 ha         1 8ZW       0.105000
     53 H20        -13.7060    -0.2010     7.4300 ha         1 8ZW       0.108000
     54 H21        -10.6040    -1.5030     7.2610 hc         1 8ZW       0.009700
     55 H22        -12.2750    -1.9240     6.8610 hc         1 8ZW       0.009700
     56 H23        -11.1010    -1.6360     5.5690 hc         1 8ZW       0.009700
@<TRIPOS>BOND
     1     1     2 1   
     2     1     6 1   
     3     1    34 1   
     4     1    35 1   
     5     2     3 1   
     6     2    36 1   
     7     2    37 1   
     8     3     4 1   
     9     4     5 1   
    10     4    38 1   
    11     4    39 1   
    12     5     6 1   
    13     5    40 1   
    14     5    41 1   
    15     6     7 1   
    16     7     8 ar  
    17     7     9 ar  
    18     8    16 ar  
    19     8    42 1   
    20     9    10 ar  
    21     9    43 1   
    22    10    11 1   
    23    10    15 ar  
    24    11    12 2   
    25    11    13 2   
    26    11    14 1   
    27    14    44 1   
    28    14    45 1   
    29    14    46 1   
    30    15    16 ar  
    31    15    47 1   
    32    16    17 1   
    33    17    18 1   
    34    17    48 1   
    35    18    19 1   
    36    18    20 2   
    37    19    22 1   
    38    20    21 1   
    39    21    22 2   
    40    21    49 1   
    41    22    23 1   
    42    23    24 2   
    43    23    25 1   
    44    25    26 1   
    45    25    50 1   
    46    26    27 ar  
    47    26    32 ar  
    48    27    28 1   
    49    27    29 ar  
    50    29    30 ar  
    51    29    51 1   
    52    30    31 ar  
    53    30    52 1   
    54    31    32 ar  
    55    31    53 1   
    56    32    33 1   
    57    33    54 1   
    58    33    55 1   
    59    33    56 1   
@<TRIPOS>SUBSTRUCTURE
     1 8ZW         1 TEMP              0 ****  ****    0 ROOT
