@<TRIPOS>MOLECULE
molecule
   56    59     1     0     0
SMALL
bcc


@<TRIPOS>ATOM
      1 FAX          0.0000     0.0000     0.0000 f          1 8ZZ      -0.243300
      2 CAW          1.3990     0.0000     0.0000 c3         1 8ZZ       0.158600
      3 CAV          1.9110     0.0000     1.4420 c3         1 8ZZ       0.134800
      4 NAU          3.3790     0.0200     1.4420 n7         1 8ZZ      -0.821200
      5 CAT          3.8930     1.2370     0.7990 c3         1 8ZZ       0.153800
      6 CAS          3.4410     1.2740    -0.6630 c3         1 8ZZ      -0.093400
      7 CAR          1.9110     1.2520    -0.7180 c3         1 8ZZ       0.092700
      8 NAQ          1.4720     1.2280    -2.1160 ns         1 8ZZ      -0.577900
      9 CAP          1.3450     2.3810    -2.8020 c          1 8ZZ       0.678700
     10 OAY          1.5950     3.4400    -2.2610 o          1 8ZZ      -0.602100
     11 CAO          0.9040     2.3570    -4.2130 ca         1 8ZZ      -0.124600
     12 CAZ          0.7770     3.5480    -4.9270 ca         1 8ZZ      -0.074000
     13 CAN          0.6160     1.1410    -4.8360 ca         1 8ZZ      -0.126000
     14 CAM          0.2040     1.1210    -6.1530 ca         1 8ZZ      -0.115000
     15 CAL          0.0740     2.3030    -6.8590 ca         1 8ZZ      -0.148000
     16 CAK          0.3610     3.5180    -6.2500 ca         1 8ZZ       0.142600
     17 NAJ          0.2330     4.7090    -6.9690 nu         1 8ZZ      -0.740300
     18 CAI          0.9880     5.8100    -6.6230 cc         1 8ZZ       0.729300
     19 SBA          0.8150     7.3660    -7.3070 ss         1 8ZZ      -0.236300
     20 NAH          1.9290     5.8100    -5.7230 nd         1 8ZZ      -0.758000
     21 CAG          2.5550     6.9390    -5.5090 cd         1 8ZZ       0.495200
     22 CAF          2.1110     7.9760    -6.2810 cc         1 8ZZ      -0.259000
     23 CAE          2.6190     9.3470    -6.2590 c          1 8ZZ       0.713700
     24 OBB          3.5240     9.6490    -5.5020 o          1 8ZZ      -0.573100
     25 NAD          2.0860    10.2770    -7.0750 ns         1 8ZZ      -0.482100
     26 CAC          2.6460    11.5570    -7.1390 ca         1 8ZZ       0.057600
     27 CAB          2.8620    12.2810    -5.9720 ca         1 8ZZ       0.041400
     28 ClA          2.4360    11.5980    -4.4340 cl         1 8ZZ      -0.077400
     29 CBG          3.4160    13.5460    -6.0380 ca         1 8ZZ      -0.118000
     30 CBF          3.7560    14.0900    -7.2630 ca         1 8ZZ      -0.124000
     31 CBE          3.5430    13.3720    -8.4260 ca         1 8ZZ      -0.120000
     32 CBC          2.9940    12.1050    -8.3660 ca         1 8ZZ      -0.089300
     33 CBD          2.7690    11.3210    -9.6330 c3         1 8ZZ      -0.045800
     34 H1           1.7650    -0.8820    -0.5110 h1         1 8ZZ       0.066700
     35 H2           1.5630    -0.8930     1.9470 h1         1 8ZZ       0.048200
     36 H3           1.5390     0.8780     1.9550 h1         1 8ZZ       0.048200
     37 H4           3.7140    -0.0260     2.3840 hn         1 8ZZ       0.362800
     38 H6           4.9760     1.2360     0.8410 h1         1 8ZZ       0.040200
     39 H7           3.5080     2.1070     1.3170 h1         1 8ZZ       0.040200
     40 H8           3.8060     2.1800    -1.1300 hc         1 8ZZ       0.064700
     41 H9           3.8330     0.4090    -1.1830 hc         1 8ZZ       0.064700
     42 H10          1.5200     2.1340    -0.2260 h1         1 8ZZ       0.091700
     43 H11          1.2620     0.3560    -2.5590 hn         1 8ZZ       0.317500
     44 H12          1.0010     4.4950    -4.4500 ha         1 8ZZ       0.194000
     45 H13          0.7170     0.2130    -4.2860 ha         1 8ZZ       0.127000
     46 H14         -0.0200     0.1770    -6.6340 ha         1 8ZZ       0.136000
     47 H15         -0.2510     2.2810    -7.8930 ha         1 8ZZ       0.131000
     48 H16         -0.4140     4.7660    -7.7310 hn         1 8ZZ       0.463800
     49 H17          3.3530     7.0430    -4.7830 h4         1 8ZZ       0.073100
     50 H18          1.2640    10.0640    -7.6060 hn         1 8ZZ       0.324500
     51 H19          3.5850    14.1120    -5.1300 ha         1 8ZZ       0.146000
     52 H20          4.1880    15.0820    -7.3120 ha         1 8ZZ       0.136000
     53 H21          3.8120    13.8000    -9.3830 ha         1 8ZZ       0.135000
     54 H22          3.2260    10.3430    -9.5390 hc         1 8ZZ       0.045367
     55 H23          1.7050    11.2070    -9.8030 hc         1 8ZZ       0.045367
     56 H24          3.2140    11.8480   -10.4690 hc         1 8ZZ       0.045367
@<TRIPOS>BOND
     1     3     4 1
     2     3     2 1
     3     1     2 1
     4    10     9 2
     5     4     5 1
     6     2     7 1
     7     5     6 1
     8     7     6 1
     9     7     8 1
    10     9     8 1
    11     9    11 1
    12    12    11 ar
    13    12    16 ar
    14    11    13 ar
    15    17    16 1
    16    17    18 1
    17    20    18 2
    18    20    21 1
    19    16    15 ar
    20    18    19 1
    21    21    22 2
    22    13    14 ar
    23    15    14 ar
    24    19    22 1
    25    22    23 1
    26    28    27 1
    27    25    23 1
    28    25    26 1
    29    23    24 2
    30    26    27 ar
    31    26    32 ar
    32    27    29 ar
    33    32    33 1
    34    32    31 ar
    35    29    30 ar
    36    31    30 ar
    37     2    34 1
    38     3    35 1
    39     3    36 1
    40     4    37 1
    41     5    38 1
    42     5    39 1
    43     6    40 1
    44     6    41 1
    45     7    42 1
    46     8    43 1
    47    12    44 1
    48    13    45 1
    49    14    46 1
    50    15    47 1
    51    17    48 1
    52    21    49 1
    53    25    50 1
    54    29    51 1
    55    30    52 1
    56    31    53 1
    57    33    54 1
    58    33    55 1
    59    33    56 1
@<TRIPOS>SUBSTRUCTURE
     1 8ZZ         1 TEMP              0 ****  ****    0 ROOT
