@<TRIPOS>MOLECULE
molecule
   35    35     1     0     0
SMALL
bcc


@<TRIPOS>ATOM
      1 C1           0.0000     0.0000     0.0000 ca         1 G00       0.191100
      2 N1           3.5460     0.1930     6.1200 n2         1 G00      -0.720100
      3 O1          -0.6800    -0.0010    -1.1770 os         1 G00      -0.301900
      4 S1           2.4450     1.7050     4.2210 ss         1 G00      -0.117300
      5 Cl1         -2.4270     0.0060     1.2080 cl         1 G00      -0.059400
      6 C2           1.3880     0.0000     0.0000 ca         1 G00      -0.215000
      7 N2           3.7550     2.4770     6.4820 nz         1 G00      -0.786600
      8 C3           2.0780     0.0000     1.1970 ca         1 G00      -0.059000
      9 C4           1.3870    -0.0010     2.3950 ca         1 G00      -0.166300
     10 C5           0.0050    -0.0010     2.3980 ca         1 G00      -0.061000
     11 C6          -0.6910     0.0060     1.2040 ca         1 G00      -0.009600
     12 C7           0.0970    -0.0010    -2.3760 c3         1 G00       0.130400
     13 C8          -0.8360    -0.0010    -3.5880 c3         1 G00      -0.081400
     14 C9          -0.0050    -0.0010    -4.8720 c3         1 G00      -0.082400
     15 C10         -0.9380    -0.0020    -6.0850 c3         1 G00      -0.089100
     16 C11          2.1430    -0.0010     3.6990 c3         1 G00       0.085000
     17 C12          3.3160     1.4150     5.7250 c2         1 G00       0.464100
     18 HN1          4.0410     0.0280     6.9740 hn         1 G00       0.432400
     19 H2           1.9300     0.0000    -0.9380 ha         1 G00       0.158000
     20 HN2          3.4960     3.3350     6.0350 hn         1 G00       0.465800
     21 HN2A         3.3370     2.4350     7.3900 hn         1 G00       0.465800
     22 H3           3.1610     0.0000     1.1970 ha         1 G00       0.138000
     23 H5          -0.5340     0.0010     3.3380 ha         1 G00       0.151000
     24 H7           0.7220    -0.8860    -2.4010 h1         1 G00       0.039200
     25 H7A          0.7220     0.8840    -2.4010 h1         1 G00       0.039200
     26 H8          -1.4610     0.8840    -3.5620 hc         1 G00       0.062700
     27 H8A         -1.4610    -0.8850    -3.5620 hc         1 G00       0.062700
     28 H9           0.6200     0.8840    -4.8980 hc         1 G00       0.041700
     29 H9A          0.6200    -0.8850    -4.8980 hc         1 G00       0.041700
     30 H10         -0.3490    -0.0010    -6.9940 hc         1 G00       0.040367
     31 H10A        -1.5630    -0.8860    -6.0590 hc         1 G00       0.040367
     32 H10B        -1.5640     0.8830    -6.0590 hc         1 G00       0.040367
     33 H11          1.5590    -0.5120     4.4550 h1         1 G00       0.096200
     34 H11A         3.0890    -0.5110     3.5670 h1         1 G00       0.096200
     35 H23          4.7380     2.3860     6.6470 hn         1 G00       0.465800
@<TRIPOS>BOND
     1     3     1 1
     2    11     1 ar
     3     1     6 ar
     4     2    17 2
     5     2    18 1
     6    12     3 1
     7    16     4 1
     8     4    17 1
     9     5    11 1
    10     6     8 ar
    11     6    19 1
    12    17     7 1
    13     7    20 1
    14     7    21 1
    15     9     8 ar
    16     8    22 1
    17    10     9 ar
    18     9    16 1
    19    11    10 ar
    20    10    23 1
    21    12    13 1
    22    12    24 1
    23    12    25 1
    24    13    14 1
    25    13    26 1
    26    13    27 1
    27    14    15 1
    28    14    28 1
    29    14    29 1
    30    15    30 1
    31    15    31 1
    32    15    32 1
    33    16    33 1
    34    16    34 1
    35    35     7 1
@<TRIPOS>SUBSTRUCTURE
     1 G00         1 TEMP              0 ****  ****    0 ROOT
