@<TRIPOS>MOLECULE
G04
   81    84     1     0     0
SMALL
bcc


@<TRIPOS>ATOM
      1 C2           0.0000     0.0000     0.0000 ca         1 G04       0.203100
      2 C3           1.3870     0.0000     0.0000 ca         1 G04      -0.209000
      3 C4           2.0770     0.0000     1.1980 ca         1 G04       0.046000
      4 C5           1.3860    -0.0010     2.3950 ca         1 G04      -0.204500
      5 C6           0.0030    -0.0000     2.3970 ca         1 G04       0.046000
      6 C7          -0.6920    -0.0000     1.2030 ca         1 G04      -0.209000
      7 S8           2.2680    -0.0020     3.9200 sy         1 G04       1.050200
      8 O9           1.3870    -0.5470     4.8930 o          1 G04      -0.591800
      9 O10          3.5510    -0.5470     3.6400 o          1 G04      -0.591800
     10 N11          2.5140     1.5790     4.3460 n3         1 G04      -0.518500
     11 C12          3.7210     2.2790     3.8980 c3         1 G04       0.214800
     12 C13          3.4280     3.0160     2.5900 c3         1 G04      -0.087700
     13 C14          2.3590     4.0830     2.8340 c3         1 G04       0.005400
     14 C15          4.7080     3.6820     2.0830 c3         1 G04       0.005400
     15 C16          1.5250     2.2780     5.1690 c3         1 G04       0.207800
     16 C17          1.9260     2.1790     6.6420 c3         1 G04       0.151100
     17 O18          3.1550     2.8800     6.8490 oh         1 G04      -0.587800
     18 C19          0.8320     2.8000     7.5120 c3         1 G04       0.011700
     19 N20          1.1580     2.5990     8.9260 ns         1 G04      -0.163900
     20 C21          0.1770     2.5860     9.8490 c          1 G04       0.674100
     21 O22         -0.9790     2.7400     9.5090 o          1 G04      -0.641000
     22 O23          0.4770     2.4010    11.1490 os         1 G04      -0.416900
     23 C24         -0.6310     2.3980    12.0870 c3         1 G04       0.173100
     24 C25         -1.1600     0.9620    12.2930 c3         1 G04       0.181400
     25 O26         -1.5160     0.8980    13.6910 os         1 G04      -0.386600
     26 C27         -0.4690     1.6030    14.3900 c3         1 G04       0.387900
     27 O28          0.7250     0.7950    14.3650 os         1 G04      -0.413600
     28 C29          1.8260     1.7260    14.4130 c3         1 G04       0.184400
     29 C30          1.4020     2.8870    13.4870 c3         1 G04       0.126100
     30 C31         -0.1520     2.8310    13.4890 c3         1 G04      -0.125700
     31 C32          0.7350     4.2980     7.2190 c3         1 G04       0.008900
     32 C33         -0.2280     5.3840     9.2580 ca         1 G04      -0.093000
     33 C34         -1.2880     5.9290     9.9570 ca         1 G04      -0.091500
     34 C35         -2.5440     5.9760     9.3810 ca         1 G04      -0.099000
     35 C36         -2.7390     5.4790     8.1060 ca         1 G04      -0.091500
     36 C37         -1.6780     4.9350     7.4070 ca         1 G04      -0.093000
     37 C38         -0.4230     4.8870     7.9830 ca         1 G04      -0.078300
     38 O39         -0.6800     0.0060    -1.1760 os         1 G04      -0.304900
     39 C40          0.0970     0.0070    -2.3760 c3         1 G04       0.245700
     40 O41          1.8480     4.1370    14.0150 os         1 G04      -0.405600
     41 C42          3.1340     4.5430    13.5430 c3         1 G04       0.251700
     42 H3           1.9290     0.0000    -0.9380 ha         1 G04       0.125500
     43 H4           3.1600    -0.0000     1.1980 ha         1 G04       0.121500
     44 H6          -0.5360    -0.0010     3.3370 ha         1 G04       0.121500
     45 H7          -1.7750     0.0000     1.2060 ha         1 G04       0.125500
     46 H12          4.5160     1.5610     3.7390 h1         1 G04       0.043200
     47 H12A         4.0250     2.9930     4.6540 h1         1 G04       0.043200
     48 H13          3.0720     2.3090     1.8500 hc         1 G04       0.028700
     49 H14          2.3440     4.7770     2.0020 hc         1 G04       0.005533
     50 H14A         2.5850     4.6190     3.7480 hc         1 G04       0.005533
     51 H14B         1.3890     3.6080     2.9250 hc         1 G04       0.005533
     52 H15          5.0290     4.4350     2.7930 hc         1 G04       0.005533
     53 H15A         4.5170     4.1490     1.1240 hc         1 G04       0.005533
     54 H15B         5.4850     2.9360     1.9720 hc         1 G04       0.005533
     55 H16          0.5510     1.8240     5.0280 h1         1 G04       0.041200
     56 H16A         1.4830     3.3200     4.8750 h1         1 G04       0.041200
     57 H17          2.0540     1.1380     6.9110 h1         1 G04       0.030700
     58 HO18         3.7390     2.3450     7.3610 ho         1 G04       0.392000
     59 H19         -0.1170     2.3280     7.2900 h1         1 G04       0.070700
     60 HN20         2.1070     2.4430     9.2030 hn         1 G04       0.169500
     61 H24         -1.4280     3.0480    11.7450 h1         1 G04       0.058700
     62 H25         -0.3830     0.2410    12.0700 h1         1 G04       0.030200
     63 H25A        -2.0330     0.7910    11.6750 h1         1 G04       0.030200
     64 H27         -0.7580     1.8900    15.3940 h2         1 G04       0.044700
     65 H29          2.7300     1.2590    14.0410 h1         1 G04       0.017700
     66 H29A         1.9700     2.0860    15.4250 h1         1 G04       0.017700
     67 H30          1.7850     2.7310    12.4860 h1         1 G04       0.053700
     68 H31         -0.6140     3.7460    13.8390 hc         1 G04       0.069700
     69 H32          0.5810     4.4490     6.1570 hc         1 G04       0.031200
     70 H32A         1.6540     4.7860     7.5230 hc         1 G04       0.031200
     71 H34         -1.1350     6.3190    10.9560 ha         1 G04       0.098000
     72 H35         -3.3750     6.4030     9.9290 ha         1 G04       0.099000
     73 H36         -3.7230     5.5160     7.6540 ha         1 G04       0.098000
     74 H37         -1.8300     4.5450     6.4080 ha         1 G04       0.098000
     75 H40          0.7270    -0.8730    -2.3980 h1         1 G04       0.000367
     76 H40A         0.7160     0.8960    -2.4040 h1         1 G04       0.000367
     77 H40B        -0.5640    -0.0000    -3.2340 h1         1 G04       0.000367
     78 H42          3.0160     5.1670    12.6660 h1         1 G04      -0.011967
     79 H42A         3.7170     3.6670    13.2870 h1         1 G04      -0.011967
     80 H42B         3.6430     5.1020    14.3180 h1         1 G04      -0.011967
     81 H33          0.7560     5.3480     9.7100 ha         1 G04       0.098000
@<TRIPOS>BOND
     1     1     2 ar  
     2     1     6 ar  
     3     1    38 1   
     4     2     3 ar  
     5     2    42 1   
     6     3     4 ar  
     7     3    43 1   
     8     4     5 ar  
     9     4     7 1   
    10     5     6 ar  
    11     5    44 1   
    12     6    45 1   
    13     7     8 2   
    14     7     9 2   
    15     7    10 1   
    16    10    11 1   
    17    10    15 1   
    18    11    12 1   
    19    11    46 1   
    20    11    47 1   
    21    12    13 1   
    22    12    14 1   
    23    12    48 1   
    24    13    49 1   
    25    13    50 1   
    26    13    51 1   
    27    14    52 1   
    28    14    53 1   
    29    14    54 1   
    30    15    16 1   
    31    15    55 1   
    32    15    56 1   
    33    16    17 1   
    34    16    18 1   
    35    16    57 1   
    36    17    58 1   
    37    18    19 1   
    38    18    31 1   
    39    18    59 1   
    40    19    20 1   
    41    19    60 1   
    42    20    21 2   
    43    20    22 1   
    44    22    23 1   
    45    23    24 1   
    46    23    30 1   
    47    23    61 1   
    48    24    25 1   
    49    24    62 1   
    50    24    63 1   
    51    25    26 1   
    52    26    27 1   
    53    26    30 1   
    54    26    64 1   
    55    27    28 1   
    56    28    29 1   
    57    28    65 1   
    58    28    66 1   
    59    29    30 1   
    60    29    40 1   
    61    29    67 1   
    62    30    68 1   
    63    31    37 1   
    64    31    69 1   
    65    31    70 1   
    66    32    33 ar  
    67    32    37 ar  
    68    32    81 1   
    69    33    34 ar  
    70    33    71 1   
    71    34    35 ar  
    72    34    72 1   
    73    35    36 ar  
    74    35    73 1   
    75    36    37 ar  
    76    36    74 1   
    77    38    39 1   
    78    39    75 1   
    79    39    76 1   
    80    39    77 1   
    81    40    41 1   
    82    41    78 1   
    83    41    79 1   
    84    41    80 1   
@<TRIPOS>SUBSTRUCTURE
     1 G04         1 TEMP              0 ****  ****    0 ROOT
