@<TRIPOS>MOLECULE
G05
   82    84     1     0     0
SMALL
bcc


@<TRIPOS>ATOM
      1 C2         -1.1890   -1.7290    1.7650 ca        1 G05      0.305100
      2 O39        -2.3500   -2.3940    1.8690 os        1 G05     -0.262900
      3 C40        -2.3640   -3.6500    2.5720 c3        1 G05      0.096700
      4 C3         -1.2500   -0.5040    1.0330 ca        1 G05     -0.214000
      5 C4         -0.1140    0.2380    0.8650 ca        1 G05      0.061500
      6 C5          1.1520   -0.1650    1.4010 ca        1 G05     -0.693500
      7 C6          1.1700   -1.3890    2.1380 ca        1 G05      0.061500
      8 C7          0.0470   -2.1540    2.3190 ca        1 G05     -0.214000
      9 S8          2.4260    0.6480    1.1440 s4        1 G05      1.690300
     10 O9          3.6130    0.1630    1.6040 o         1 G05     -0.451400
     11 O10         2.3860    1.6870    0.2650 o         1 G05     -0.451400
     12 N11         2.3090    2.1600    3.0560 n3        1 G05     -0.901200
     13 C12         1.1350    3.0250    2.9580 c3        1 G05      0.109800
     14 C13         0.6940    3.7340    4.2460 c3        1 G05     -0.082700
     15 C14        -0.5220    4.5830    3.9390 c3        1 G05     -0.103600
     16 C15         0.3910    2.7500    5.3550 c3        1 G05     -0.103600
     17 C16         3.5790    2.8530    3.2750 c3        1 G05      0.102800
     18 C17         3.9530    3.8800    2.1930 c3        1 G05      0.108100
     19 O18         3.2370    5.0920    2.2920 oh        1 G05     -0.594800
     20 C19         5.4810    4.1700    2.2540 c3        1 G05      0.103500
     21 N20         5.8460    5.1860    1.2000 n4        1 G05     -0.643800
     22 C21         6.0760    4.5750   -0.1480 c         1 G05      0.631100
     23 O22         5.6560    3.4650   -0.4490 o         1 G05     -0.453000
     24 O23         6.8030    5.4040   -0.9060 os        1 G05     -0.397900
     25 C24         6.9550    5.0560   -2.3360 c3        1 G05      0.174100
     26 C25         5.6210    5.1890   -3.0630 c3        1 G05     -0.116900
     27 C26         5.6100    6.5850   -3.6920 c3        1 G05      0.112100
     28 O27         4.9620    7.4400   -2.7500 os        1 G05     -0.408100
     29 C28         5.2170    8.8220   -2.9930 c3        1 G05      0.090900
     30 C29         6.7120    9.0870   -2.9290 c3        1 G05      0.090900
     31 O30         7.4040    8.3130   -3.9030 os        1 G05     -0.408100
     32 C31         7.0980    6.9330   -3.9150 c3        1 G05      0.112100
     33 C41         7.8910    6.1410   -2.8650 c3        1 G05     -0.116900
     34 C32         5.9210    4.6570    3.6420 c3        1 G05     -0.052100
     35 C33         7.6730    6.4450    3.6450 ca        1 G05     -0.131000
     36 C34         9.0070    6.8450    3.7120 ca        1 G05     -0.110000
     37 C35        10.0210    5.8900    3.8010 ca        1 G05     -0.089000
     38 C36         9.6980    4.5320    3.8260 ca        1 G05     -0.110000
     39 C37         8.3650    4.1280    3.7610 ca        1 G05     -0.131000
     40 C38         7.3460    5.0820    3.6660 ca        1 G05     -0.173300
     41 H40        -1.6870   -4.3800    2.0660 h1        1 G05      0.084033
     42 H40A       -2.0790   -3.4930    3.6390 h1        1 G05      0.084033
     43 H40B       -3.4380   -3.9630    2.4810 h1        1 G05      0.084033
     44 H3         -2.2190   -0.1890    0.6080 ha        1 G05      0.193000
     45 H4         -0.1620    1.1810    0.2840 ha        1 G05      0.172000
     46 H6          2.1340   -1.7310    2.5650 ha        1 G05      0.172000
     47 H7          0.1020   -3.0990    2.8860 ha        1 G05      0.193000
     48 H12         0.2850    2.3690    2.6070 h1        1 G05      0.079200
     49 H12A        1.3290    3.8030    2.1630 h1        1 G05      0.079200
     50 H13         1.5270    4.4140    4.5840 hc        1 G05      0.041700
     51 H14        -1.3850    3.9430    3.6340 hc        1 G05      0.051700
     52 H14A       -0.8210    5.1620    4.8470 hc        1 G05      0.051700
     53 H14B       -0.3030    5.3050    3.1150 hc        1 G05      0.051700
     54 H15        -0.3160    1.9600    5.0030 hc        1 G05      0.051700
     55 H15A       -0.0850    3.2830    6.2150 hc        1 G05      0.051700
     56 H15B        1.3220    2.2610    5.7310 hc        1 G05      0.051700
     57 H16         3.5750    3.3810    4.2750 h1        1 G05      0.083200
     58 H16A        4.3800    2.0570    3.3010 h1        1 G05      0.083200
     59 H17         3.6980    3.4900    1.1580 h1        1 G05      0.125700
     60 HO18        3.1340    5.3260    3.2250 ho        1 G05      0.430000
     61 H19         6.0370    3.2170    2.0010 hx        1 G05      0.126700
     62 HN20        5.0770    5.8710    1.1130 hn        1 G05      0.489300
     63 H24         7.3780    4.0200   -2.3710 h1        1 G05      0.092700
     64 H25         5.5550    4.4120   -3.8680 hc        1 G05      0.088450
     65 H25A        4.7540    5.0550   -2.3700 hc        1 G05      0.088450
     66 H26         5.0370    6.6170   -4.6560 h1        1 G05      0.094200
     67 H28         4.7990    9.1150   -3.9910 h1        1 G05      0.070450
     68 H28A        4.6690    9.3530   -2.1720 h1        1 G05      0.070450
     69 H29         7.1140    8.8520   -1.9080 h1        1 G05      0.070450
     70 H29A        6.9550   10.1470   -3.2080 h1        1 G05      0.070450
     71 H31         7.4100    6.6130   -4.9520 h1        1 G05      0.094200
     72 H41         8.2320    6.8200   -2.0400 hc        1 G05      0.088450
     73 H41A        8.8000    5.6730   -3.3200 hc        1 G05      0.088450
     74 H32         5.7750    3.7990    4.3550 hc        1 G05      0.082200
     75 H32A        5.2560    5.4970    3.9790 hc        1 G05      0.082200
     76 H35        11.0740    6.2080    3.8650 ha        1 G05      0.166000
     77 H36        10.4970    3.7770    3.9110 ha        1 G05      0.161500
     78 H37         8.1170    3.0570    3.8030 ha        1 G05      0.135500
     79 H33         6.8780    7.2070    3.6190 ha        1 G05      0.135500
     80 H111        2.1800    1.5350    3.8430 hn        1 G05      0.398800
     81 H202        6.7040    5.6900    1.4910 hn        1 G05      0.489300
     82 H34         9.2590    7.9180    3.7100 ha        1 G05      0.161500
@<TRIPOS>BOND
     1    1    2 1   
     2    1    4 ar  
     3    1    8 ar  
     4    2    3 1   
     5    3   41 1   
     6    3   42 1   
     7    3   43 1   
     8    4    5 ar  
     9    4   44 1   
    10    5    6 ar  
    11    5   45 1   
    12    6    7 ar  
    13    6    9 1   
    14    7    8 ar  
    15    7   46 1   
    16    8   47 1   
    17    9   10 1   
    18    9   11 1   
    19   12   13 1   
    20   12   17 1   
    21   12   80 1   
    22   13   14 1   
    23   13   48 1   
    24   13   49 1   
    25   14   15 1   
    26   14   16 1   
    27   14   50 1   
    28   15   51 1   
    29   15   52 1   
    30   15   53 1   
    31   16   54 1   
    32   16   55 1   
    33   16   56 1   
    34   17   18 1   
    35   17   57 1   
    36   17   58 1   
    37   18   19 1   
    38   18   20 1   
    39   18   59 1   
    40   19   60 1   
    41   20   21 1   
    42   20   34 1   
    43   20   61 1   
    44   21   22 1   
    45   21   62 1   
    46   21   81 1   
    47   22   23 2   
    48   22   24 1   
    49   24   25 1   
    50   25   26 1   
    51   25   33 1   
    52   25   63 1   
    53   26   27 1   
    54   26   64 1   
    55   26   65 1   
    56   27   28 1   
    57   27   32 1   
    58   27   66 1   
    59   28   29 1   
    60   29   30 1   
    61   29   67 1   
    62   29   68 1   
    63   30   31 1   
    64   30   69 1   
    65   30   70 1   
    66   31   32 1   
    67   32   33 1   
    68   32   71 1   
    69   33   72 1   
    70   33   73 1   
    71   34   40 1   
    72   34   74 1   
    73   34   75 1   
    74   35   36 ar  
    75   35   40 ar  
    76   35   79 1   
    77   36   37 ar  
    78   36   82 1   
    79   37   38 ar  
    80   37   76 1   
    81   38   39 ar  
    82   38   77 1   
    83   39   40 ar  
    84   39   78 1   
@<TRIPOS>SUBSTRUCTURE
     1 G05         1 TEMP              0 ****  ****    0 ROOT
