@<TRIPOS>MOLECULE
G07
   75    78     1     0     0
SMALL
bcc


@<TRIPOS>ATOM
      1 O22          0.0000     0.0000     0.0000 o          1 G07      -0.654000
      2 C21          1.2140     0.0000     0.0000 c          1 G07       0.671100
      3 O23          1.8880     0.0000     1.1660 os         1 G07      -0.403900
      4 C24          1.0970     0.0010     2.3830 c3         1 G07       0.164100
      5 C31          1.8540     0.7240     3.5180 c3         1 G07      -0.119700
      6 C30          3.2830     1.0490     3.0340 c3         1 G07      -0.069400
      7 C29          4.1850     0.0990     3.8510 c3         1 G07       0.210400
      8 O28          3.4240    -0.2010     5.0400 os         1 G07      -0.397600
      9 C27          2.0630    -0.3790     4.5940 c3         1 G07       0.385900
     10 O26          1.9780    -1.6220     3.8650 os         1 G07      -0.416600
     11 C25          0.9120    -1.4390     2.9090 c3         1 G07       0.191400
     12 N20          1.8890    -0.0070    -1.1680 ns         1 G07      -0.162900
     13 C19          1.1570    -0.0140    -2.4360 c3         1 G07       0.002700
     14 C32          0.7930     1.4210    -2.8220 c3         1 G07       0.005900
     15 C38         -0.1690     1.9870    -1.8090 ca         1 G07      -0.068300
     16 C37         -1.5310     1.8330    -1.9890 ca         1 G07      -0.091500
     17 C36         -2.4140     2.3510    -1.0600 ca         1 G07      -0.097000
     18 C35         -1.9350     3.0220     0.0500 ca         1 G07      -0.108000
     19 C34         -0.5730     3.1740     0.2300 ca         1 G07      -0.097000
     20 C33          0.3100     2.6540    -0.6970 ca         1 G07      -0.091500
     21 C17          2.0340    -0.6290    -3.5280 c3         1 G07       0.147100
     22 O18          3.1720     0.2060    -3.7530 oh         1 G07      -0.570800
     23 C16          1.2260    -0.7510    -4.8230 c3         1 G07       0.196800
     24 N11          2.0190    -1.4640    -5.8270 n3         1 G07      -0.522500
     25 C12          2.1260    -2.9250    -5.7730 c3         1 G07       0.240800
     26 C13          0.9530    -3.5510    -6.5280 c3         1 G07      -0.086700
     27 C15          1.1370    -5.0690    -6.5890 c3         1 G07       0.005900
     28 C14         -0.3540    -3.2250    -5.8020 c3         1 G07       0.005900
     29 S8           2.7920    -0.6210    -7.0230 sy         1 G07       1.048200
     30 O9           2.8480    -1.4850    -8.1510 o          1 G07      -0.602300
     31 O10          2.1930     0.6660    -7.0590 o          1 G07      -0.602300
     32 C5           4.4570    -0.3800    -6.4990 ca         1 G07      -0.172500
     33 C4           5.3960    -1.3760    -6.7070 ca         1 G07      -0.034000
     34 C3           6.7010    -1.1940    -6.2980 ca         1 G07      -0.113500
     35 C6           4.8220     0.8050    -5.8870 ca         1 G07      -0.034000
     36 C7           6.1240     1.0010    -5.4750 ca         1 G07      -0.113500
     37 C2           7.0740    -0.0020    -5.6750 ca         1 G07      -0.046600
     38 C1           8.4690     0.2000    -5.2350 c          1 G07       0.962200
     39 O1           8.7930     1.2400    -4.6980 o          1 G07      -0.875300
     40 O2           9.3850    -0.7700    -5.4300 o          1 G07      -0.875300
     41 H3           0.1340     0.4680     2.2160 h1         1 G07       0.055700
     42 H4           1.3250     1.5900     3.8990 hc         1 G07       0.049700
     43 H5           3.3790     0.8440     1.9750 hc         1 G07       0.040700
     44 H6           3.5300     2.0820     3.2510 hc         1 G07       0.040700
     45 H7           4.3790    -0.8080     3.2910 h1         1 G07       0.017700
     46 H8           5.1120     0.5930     4.1140 h1         1 G07       0.017700
     47 H9           1.3450    -0.3160     5.4020 h2         1 G07       0.035700
     48 H10         -0.0500    -1.5400     3.3960 h1         1 G07       0.021200
     49 H11          1.0090    -2.1500     2.0980 h1         1 G07       0.021200
     50 H12          2.8890    -0.0320    -1.1670 hn         1 G07       0.176500
     51 H14          0.2510    -0.5990    -2.3280 h1         1 G07       0.059700
     52 H15          0.3310     1.4260    -3.8010 hc         1 G07       0.041700
     53 H16          1.6910     2.0270    -2.8440 hc         1 G07       0.041700
     54 H17         -1.9060     1.3070    -2.8580 ha         1 G07       0.101500
     55 H18         -3.4810     2.2310    -1.2010 ha         1 G07       0.093500
     56 H19         -2.6260     3.4290     0.7770 ha         1 G07       0.093000
     57 H20         -0.1970     3.6980     1.1010 ha         1 G07       0.093500
     58 H21          1.3780     2.7730    -0.5550 ha         1 G07       0.101500
     59 H22          2.3640    -1.6120    -3.2140 h1         1 G07       0.010700
     60 H23          3.8740    -0.0600    -3.1830 ho         1 G07       0.398000
     61 H24          0.9830     0.2390    -5.1910 h1         1 G07       0.048200
     62 H25          0.3120    -1.2990    -4.6280 h1         1 G07       0.048200
     63 H26          3.0570    -3.2360    -6.2300 h1         1 G07       0.018700
     64 H27          2.1050    -3.2500    -4.7400 h1         1 G07       0.018700
     65 H28          0.9170    -3.1500    -7.5340 hc         1 G07       0.055700
     66 H29          2.0730    -5.2990    -7.0840 hc         1 G07       0.001200
     67 H30          1.1520    -5.4720    -5.5840 hc         1 G07       0.001200
     68 H31          0.3170    -5.5100    -7.1430 hc         1 G07       0.001200
     69 H32         -0.6650    -2.2180    -6.0530 hc         1 G07       0.001200
     70 H33         -1.1210    -3.9260    -6.1080 hc         1 G07       0.001200
     71 H34         -0.2020    -3.3000    -4.7330 hc         1 G07       0.001200
     72 H35          5.1050    -2.3010    -7.1900 ha         1 G07       0.108000
     73 H36          7.4340    -1.9750    -6.4590 ha         1 G07       0.130500
     74 H37          4.0840     1.5830    -5.7320 ha         1 G07       0.108000
     75 H38          6.4070     1.9290    -4.9930 ha         1 G07       0.130500
@<TRIPOS>BOND
     1     1     2 2   
     2     2     3 1   
     3     2    12 1   
     4     3     4 1   
     5     4     5 1   
     6     4    11 1   
     7     4    41 1   
     8     5     6 1   
     9     5     9 1   
    10     5    42 1   
    11     6     7 1   
    12     6    43 1   
    13     6    44 1   
    14     7     8 1   
    15     7    45 1   
    16     7    46 1   
    17     8     9 1   
    18     9    10 1   
    19     9    47 1   
    20    10    11 1   
    21    11    48 1   
    22    11    49 1   
    23    12    13 1   
    24    12    50 1   
    25    13    14 1   
    26    13    21 1   
    27    13    51 1   
    28    14    15 1   
    29    14    52 1   
    30    14    53 1   
    31    15    16 ar  
    32    15    20 ar  
    33    16    17 ar  
    34    16    54 1   
    35    17    18 ar  
    36    17    55 1   
    37    18    19 ar  
    38    18    56 1   
    39    19    20 ar  
    40    19    57 1   
    41    20    58 1   
    42    21    22 1   
    43    21    23 1   
    44    21    59 1   
    45    22    60 1   
    46    23    24 1   
    47    23    61 1   
    48    23    62 1   
    49    24    25 1   
    50    24    29 1   
    51    25    26 1   
    52    25    63 1   
    53    25    64 1   
    54    26    27 1   
    55    26    28 1   
    56    26    65 1   
    57    27    66 1   
    58    27    67 1   
    59    27    68 1   
    60    28    69 1   
    61    28    70 1   
    62    28    71 1   
    63    29    30 2   
    64    29    31 2   
    65    29    32 1   
    66    32    33 ar  
    67    32    35 ar  
    68    33    34 ar  
    69    33    72 1   
    70    34    37 ar  
    71    34    73 1   
    72    35    36 ar  
    73    35    74 1   
    74    36    37 ar  
    75    36    75 1   
    76    37    38 1   
    77    38    39 1   
    78    38    40 1   
@<TRIPOS>SUBSTRUCTURE
     1 G07         1 TEMP              0 ****  ****    0 ROOT
