@<TRIPOS>MOLECULE
molecule
   75    78     1     0     0
SMALL
bcc


@<TRIPOS>ATOM
      1 O22          0.0000     0.0000     0.0000 o          1 G07      -0.605000
      2 C21          1.2140     0.0000     0.0000 c          1 G07       0.743100
      3 O23          1.8880     0.0000     1.1660 os         1 G07      -0.426900
      4 C24          1.0970     0.0010     2.3830 c3         1 G07       0.134100
      5 C31          1.8540     0.7240     3.5180 c3         1 G07      -0.134700
      6 C30          3.2830     1.0490     3.0340 c3         1 G07      -0.109400
      7 C29          4.1850     0.0990     3.8510 c3         1 G07       0.124400
      8 O28          3.4240    -0.2010     5.0400 os         1 G07      -0.397600
      9 C27          2.0630    -0.3790     4.5940 c3         1 G07       0.318900
     10 O26          1.9780    -1.6220     3.8650 os         1 G07      -0.421600
     11 C25          0.9120    -1.4390     2.9090 c3         1 G07       0.114400
     12 N20          1.8890    -0.0070    -1.1680 ns         1 G07      -0.565900
     13 C19          1.1570    -0.0140    -2.4360 c3         1 G07       0.111700
     14 C32          0.7930     1.4210    -2.8220 c3         1 G07      -0.051100
     15 C38         -0.1690     1.9870    -1.8090 ca         1 G07      -0.061300
     16 C37         -1.5310     1.8330    -1.9890 ca         1 G07      -0.116000
     17 C36         -2.4140     2.3510    -1.0600 ca         1 G07      -0.125000
     18 C35         -1.9350     3.0220     0.0500 ca         1 G07      -0.134000
     19 C34         -0.5730     3.1740     0.2300 ca         1 G07      -0.125000
     20 C33          0.3100     2.6540    -0.6970 ca         1 G07      -0.116000
     21 C17          2.0340    -0.6290    -3.5280 c3         1 G07       0.106100
     22 O18          3.1720     0.2060    -3.7530 oh         1 G07      -0.589800
     23 C16          1.2260    -0.7510    -4.8230 c3         1 G07       0.230800
     24 N11          2.0190    -1.4640    -5.8270 n3         1 G07      -0.812500
     25 C12          2.1260    -2.9250    -5.7730 c3         1 G07       0.245800
     26 C13          0.9530    -3.5510    -6.5280 c3         1 G07      -0.099700
     27 C15          1.1370    -5.0690    -6.5890 c3         1 G07      -0.087100
     28 C14         -0.3540    -3.2250    -5.8020 c3         1 G07      -0.087100
     29 S8           2.7920    -0.6210    -7.0230 sy         1 G07       1.429200
     30 O9           2.8480    -1.4850    -8.1510 o          1 G07      -0.656800
     31 O10          2.1930     0.6660    -7.0590 o          1 G07      -0.656800
     32 C5           4.4570    -0.3800    -6.4990 ca         1 G07      -0.330500
     33 C4           5.3960    -1.3760    -6.7070 ca         1 G07      -0.055500
     34 C3           6.7010    -1.1940    -6.2980 ca         1 G07      -0.133500
     35 C6           4.8220     0.8050    -5.8870 ca         1 G07      -0.055500
     36 C7           6.1240     1.0010    -5.4750 ca         1 G07      -0.133500
     37 C2           7.0740    -0.0020    -5.6750 ca         1 G07      -0.044600
     38 C1           8.4690     0.2000    -5.2350 c          1 G07       0.872200
     39 O1           8.7930     1.2400    -4.6980 o          1 G07      -0.826300
     40 O2           9.3850    -0.7700    -5.4300 o          1 G07      -0.826300
     41 H3           0.1340     0.4680     2.2160 h1         1 G07       0.088700
     42 H4           1.3250     1.5900     3.8990 hc         1 G07       0.079700
     43 H5           3.3790     0.8440     1.9750 hc         1 G07       0.070200
     44 H6           3.5300     2.0820     3.2510 hc         1 G07       0.070200
     45 H7           4.3790    -0.8080     3.2910 h1         1 G07       0.061200
     46 H8           5.1120     0.5930     4.1140 h1         1 G07       0.061200
     47 H9           1.3450    -0.3160     5.4020 h2         1 G07       0.088700
     48 H10         -0.0500    -1.5400     3.3960 h1         1 G07       0.064700
     49 H11          1.0090    -2.1500     2.0980 h1         1 G07       0.064700
     50 H12          2.8890    -0.0320    -1.1670 hn         1 G07       0.324500
     51 H14          0.2510    -0.5990    -2.3280 h1         1 G07       0.080700
     52 H15          0.3310     1.4260    -3.8010 hc         1 G07       0.070200
     53 H16          1.6910     2.0270    -2.8440 hc         1 G07       0.070200
     54 H17         -1.9060     1.3070    -2.8580 ha         1 G07       0.126500
     55 H18         -3.4810     2.2310    -1.2010 ha         1 G07       0.119500
     56 H19         -2.6260     3.4290     0.7770 ha         1 G07       0.118000
     57 H20         -0.1970     3.6980     1.1010 ha         1 G07       0.119500
     58 H21          1.3780     2.7730    -0.5550 ha         1 G07       0.126500
     59 H22          2.3640    -1.6120    -3.2140 h1         1 G07       0.044700
     60 H23          3.8740    -0.0600    -3.1830 ho         1 G07       0.412000
     61 H24          0.9830     0.2390    -5.1910 h1         1 G07       0.075700
     62 H25          0.3120    -1.2990    -4.6280 h1         1 G07       0.075700
     63 H26          3.0570    -3.2360    -6.2300 h1         1 G07       0.051700
     64 H27          2.1050    -3.2500    -4.7400 h1         1 G07       0.051700
     65 H28          0.9170    -3.1500    -7.5340 hc         1 G07       0.076700
     66 H29          2.0730    -5.2990    -7.0840 hc         1 G07       0.032033
     67 H30          1.1520    -5.4720    -5.5840 hc         1 G07       0.032033
     68 H31          0.3170    -5.5100    -7.1430 hc         1 G07       0.032033
     69 H32         -0.6650    -2.2180    -6.0530 hc         1 G07       0.032033
     70 H33         -1.1210    -3.9260    -6.1080 hc         1 G07       0.032033
     71 H34         -0.2020    -3.3000    -4.7330 hc         1 G07       0.032033
     72 H35          5.1050    -2.3010    -7.1900 ha         1 G07       0.128500
     73 H36          7.4340    -1.9750    -6.4590 ha         1 G07       0.156000
     74 H37          4.0840     1.5830    -5.7320 ha         1 G07       0.128500
     75 H38          6.4070     1.9290    -4.9930 ha         1 G07       0.156000
@<TRIPOS>BOND
     1    39    38 1
     2    40    38 1
     3    38    37 1
     4    37    36 ar
     5    37    34 ar
     6    36    35 ar
     7    34    33 ar
     8    35    32 ar
     9    33    32 ar
    10    32    29 1
    11    29    30 2
    12    29    31 2
    13    29    24 1
    14    25    24 1
    15    25    26 1
    16    24    23 1
    17    23    21 1
    18    27    26 1
    19    26    28 1
    20    14    15 1
    21    14    13 1
    22    21    22 1
    23    21    13 1
    24    16    15 ar
    25    16    17 ar
    26    15    20 ar
    27    13    12 1
    28    17    18 ar
    29    20    19 ar
    30    18    19 ar
    31    12     2 1
    32     1     2 2
    33     2     3 1
    34     3     4 1
    35     6     7 1
    36     6     5 1
    37     4     5 1
    38     4    11 1
    39     7     8 1
    40     5     9 1
    41     8     9 1
    42    11    10 1
    43     9    10 1
    44     4    41 1
    45     5    42 1
    46     6    43 1
    47     6    44 1
    48     7    45 1
    49     7    46 1
    50     9    47 1
    51    11    48 1
    52    11    49 1
    53    12    50 1
    54    13    51 1
    55    14    52 1
    56    14    53 1
    57    16    54 1
    58    17    55 1
    59    18    56 1
    60    19    57 1
    61    20    58 1
    62    21    59 1
    63    22    60 1
    64    23    61 1
    65    23    62 1
    66    25    63 1
    67    25    64 1
    68    26    65 1
    69    27    66 1
    70    27    67 1
    71    27    68 1
    72    28    69 1
    73    28    70 1
    74    28    71 1
    75    33    72 1
    76    34    73 1
    77    35    74 1
    78    36    75 1
@<TRIPOS>SUBSTRUCTURE
     1 G07         1 TEMP              0 ****  ****    0 ROOT
