@<TRIPOS>MOLECULE
molecule
   78    81     1     0     0
SMALL
bcc


@<TRIPOS>ATOM
      1 O22          0.0000     0.0000     0.0000 o          1 G08      -0.586000
      2 C21          1.2150     0.0000     0.0000 c          1 G08       0.746100
      3 O23          1.8870     0.0000     1.1660 os         1 G08      -0.430900
      4 C24          1.0970    -0.0000     2.3840 c3         1 G08       0.137100
      5 C31          1.8700     0.6800     3.5300 c3         1 G08      -0.140700
      6 C30          3.3130     0.9870     3.0550 c3         1 G08      -0.104400
      7 C29          4.1110     0.7510     4.3630 c3         1 G08       0.130400
      8 O28          3.4620    -0.3580     5.0030 os         1 G08      -0.394600
      9 C27          2.1000    -0.4540     4.5680 c3         1 G08       0.332900
     10 O26          1.9480    -1.6800     3.8180 os         1 G08      -0.408600
     11 C25          0.8720    -1.4450     2.8820 c3         1 G08       0.115400
     12 N20          1.8890    -0.0050    -1.1660 ns         1 G08      -0.576900
     13 C19          1.1560    -0.0100    -2.4360 c3         1 G08       0.119700
     14 C32          0.7920     1.4240    -2.8210 c3         1 G08      -0.045100
     15 C38         -0.1700     1.9880    -1.8070 ca         1 G08      -0.081300
     16 C37         -1.5320     1.8340    -1.9880 ca         1 G08      -0.117000
     17 C36         -2.4150     2.3460    -1.0560 ca         1 G08      -0.117000
     18 C35         -1.9360     3.0120     0.0570 ca         1 G08      -0.117000
     19 C34         -0.5740     3.1650     0.2380 ca         1 G08      -0.117000
     20 C33          0.3090     2.6540    -0.6950 ca         1 G08      -0.117000
     21 C17          2.0340    -0.6250    -3.5280 c3         1 G08       0.103100
     22 O18          3.1710     0.2110    -3.7510 oh         1 G08      -0.626800
     23 C16          1.2260    -0.7470    -4.8220 c3         1 G08       0.233800
     24 N11          2.0240    -1.4470    -5.8320 n3         1 G08      -0.805500
     25 C12          2.3710    -2.8580    -5.6410 c3         1 G08       0.233800
     26 C13          1.2260    -3.7370    -6.1480 c3         1 G08      -0.095700
     27 C15          1.0750    -3.5580    -7.6600 c3         1 G08      -0.088100
     28 C14          1.5330    -5.2030    -5.8360 c3         1 G08      -0.088100
     29 S8           2.5340    -0.6440    -7.1870 sy         1 G08       1.411200
     30 O9           2.9500    -1.6420    -8.1110 o          1 G08      -0.608800
     31 O10          1.5340     0.3200    -7.4820 o          1 G08      -0.608800
     32 C5           3.9810     0.2580    -6.7460 ca         1 G08      -0.235500
     33 C4           5.2270    -0.3360    -6.8620 ca         1 G08      -0.010500
     34 C3           6.3630     0.3660    -6.5180 ca         1 G08      -0.093500
     35 C6           3.8700     1.5600    -6.2900 ca         1 G08      -0.010500
     36 C7           4.9990     2.2720    -5.9440 ca         1 G08      -0.093500
     37 C2           6.2560     1.6780    -6.0530 ca         1 G08      -0.176600
     38 C1           7.4710     2.4350    -5.6830 c          1 G08       0.504700
     39 O1           8.5650     1.9160    -5.7840 o          1 G08      -0.410100
     40 N1           7.3640     3.7010    -5.2340 nz         1 G08      -0.679400
     41 H1           0.1470     0.4950     2.2260 h1         1 G08       0.090700
     42 H2           1.3610     1.5420     3.9450 hc         1 G08       0.086700
     43 H3           3.6220     0.2930     2.2820 hc         1 G08       0.065700
     44 H4           3.4020     2.0150     2.7260 hc         1 G08       0.065700
     45 H5           5.1400     0.5020     4.1340 h1         1 G08       0.051200
     46 H6           4.0610     1.6290     4.9950 h1         1 G08       0.051200
     47 H7           1.4030    -0.3950     5.3950 h2         1 G08       0.085700
     48 H8           0.9340    -2.1420     2.0550 h1         1 G08       0.069700
     49 H9          -0.0860    -1.5260     3.3820 h1         1 G08       0.069700
     50 H10          2.8890    -0.0410    -1.1660 hn         1 G08       0.310500
     51 H11          0.2510    -0.5960    -2.3280 h1         1 G08       0.099700
     52 H12          1.6890     2.0310    -2.8440 hc         1 G08       0.051700
     53 H13          0.3290     1.4280    -3.8000 hc         1 G08       0.051700
     54 H14         -1.9070     1.3120    -2.8600 ha         1 G08       0.120000
     55 H15         -3.4830     2.2260    -1.1980 ha         1 G08       0.130500
     56 H16         -2.6280     3.4130     0.7880 ha         1 G08       0.133000
     57 H17         -0.1990     3.6860     1.1100 ha         1 G08       0.130500
     58 H18          1.3760     2.7740    -0.5530 ha         1 G08       0.120000
     59 H19          2.3640    -1.6080    -3.2150 h1         1 G08       0.055700
     60 H20          3.8970    -0.1010    -3.2370 ho         1 G08       0.403000
     61 H21          0.9730     0.2420    -5.1840 h1         1 G08       0.083200
     62 H22          0.3180    -1.3040    -4.6300 h1         1 G08       0.083200
     63 H23          2.5350    -3.0500    -4.5870 h1         1 G08       0.054700
     64 H24          3.2740    -3.0860    -6.1940 h1         1 G08       0.054700
     65 H25          0.3050    -3.4480    -5.6570 hc         1 G08       0.056700
     66 H26          0.7300    -2.5530    -7.8720 hc         1 G08       0.043033
     67 H27          0.3560    -4.2740    -8.0380 hc         1 G08       0.043033
     68 H28          2.0330    -3.7190    -8.1400 hc         1 G08       0.043033
     69 H29          2.4580    -5.4900    -6.3220 hc         1 G08       0.043033
     70 H30          1.6330    -5.3310    -4.7650 hc         1 G08       0.043033
     71 H31          0.7250    -5.8260    -6.2010 hc         1 G08       0.043033
     72 H32          5.3080    -1.3540    -7.2230 ha         1 G08       0.181000
     73 H33          7.3360    -0.1010    -6.6070 ha         1 G08       0.142500
     74 H34          2.8930     2.0210    -6.2060 ha         1 G08       0.181000
     75 H35          4.9090     3.2900    -5.5860 ha         1 G08       0.142500
     76 H36          6.8050     3.7150    -4.4040 hn         1 G08       0.479467
     77 H37          6.9330     4.2690    -5.9360 hn         1 G08       0.479467
     78 H131         8.2750     4.0600    -5.0270 hn         1 G08       0.479467
@<TRIPOS>BOND
     1    10     9 1
     2    10    11 1
     3     9     8 1
     4     9     5 1
     5    11     4 1
     6     8     7 1
     7     5     4 1
     8     5     6 1
     9     4     3 1
    10     7     6 1
    11     3     2 1
    12     2     1 2
    13     2    12 1
    14    17    18 ar
    15    17    16 ar
    16    12    13 1
    17    18    19 ar
    18    16    15 ar
    19    19    20 ar
    20    15    20 ar
    21    15    14 1
    22    13    14 1
    23    13    21 1
    24    22    21 1
    25    28    26 1
    26    21    23 1
    27    26    27 1
    28    26    25 1
    29    23    24 1
    30    24    25 1
    31    24    29 1
    32    31    29 2
    33    30    29 2
    34    29    32 1
    35    32    33 ar
    36    32    35 ar
    37    33    34 ar
    38    35    36 ar
    39    34    37 ar
    40    36    37 ar
    41    37    38 1
    42    38    39 2
    43    38    40 1
    44     4    41 1
    45     5    42 1
    46     6    43 1
    47     6    44 1
    48     7    45 1
    49     7    46 1
    50     9    47 1
    51    11    48 1
    52    11    49 1
    53    12    50 1
    54    13    51 1
    55    14    52 1
    56    14    53 1
    57    16    54 1
    58    17    55 1
    59    18    56 1
    60    19    57 1
    61    20    58 1
    62    21    59 1
    63    22    60 1
    64    23    61 1
    65    23    62 1
    66    25    63 1
    67    25    64 1
    68    26    65 1
    69    27    66 1
    70    27    67 1
    71    27    68 1
    72    28    69 1
    73    28    70 1
    74    28    71 1
    75    33    72 1
    76    34    73 1
    77    35    74 1
    78    36    75 1
    79    40    76 1
    80    40    77 1
    81    78    40 1
@<TRIPOS>SUBSTRUCTURE
     1 G08         1 TEMP              0 ****  ****    0 ROOT
