@<TRIPOS>MOLECULE
G0G
   70    74     1     0     0
SMALL
bcc


@<TRIPOS>ATOM
      1 O10          0.0000     0.0000     0.0000 o          1 G0G      -0.593050
      2 S8           1.4210     0.0000     0.0000 sy         1 G0G       1.048700
      3 N28          1.8880     0.0000     1.5890 n3         1 G0G      -0.506500
      4 C7           3.2700    -0.3290     1.9470 c3         1 G0G       0.288600
      5 C12          3.9680     0.9100     2.4460 ca         1 G0G      -0.134300
      6 C13          4.7380     1.6660     1.5810 ca         1 G0G      -0.092250
      7 C29          5.3780     2.8020     2.0390 ca         1 G0G      -0.101500
      8 C31          5.2490     3.1830     3.3610 ca         1 G0G      -0.103000
      9 C30          4.4780     2.4290     4.2260 ca         1 G0G      -0.101500
     10 C14          3.8340     1.2950     3.7670 ca         1 G0G      -0.092250
     11 C23          0.9180     0.3280     2.6370 c3         1 G0G       0.167500
     12 C21          0.2840     1.7050     2.3660 c3         1 G0G       0.108800
     13 N22         -1.1650     1.4840     2.1670 n7         1 G0G      -0.549200
     14 C25         -1.4860     0.2310     2.8980 c3         1 G0G       0.108800
     15 C24         -0.2600    -0.6710     2.6120 c3         1 G0G       0.167500
     16 N32         -0.1040    -1.6840     3.6590 n3         1 G0G      -0.506500
     17 S9          -0.0280    -1.2240     5.2490 sy         1 G0G       1.048700
     18 O11          0.2460     0.1710     5.2510 o          1 G0G      -0.593050
     19 C27         -1.6440    -1.4140     5.9250 ca         1 G0G      -0.156000
     20 C18         -2.0600    -2.6490     6.3850 ca         1 G0G      -0.000500
     21 C2          -3.3280    -2.7980     6.9160 ca         1 G0G      -0.131250
     22 C6          -4.1800    -1.7120     6.9860 ca         1 G0G      -0.046000
     23 C5          -3.7640    -0.4760     6.5250 ca         1 G0G      -0.131250
     24 C20         -2.4940    -0.3260     5.9990 ca         1 G0G      -0.000500
     25 O40          0.7950    -2.1790     5.9040 o          1 G0G      -0.593050
     26 C33         -0.0160    -3.1010     3.3020 c3         1 G0G       0.288600
     27 C34          1.3920    -3.4240     2.8730 ca         1 G0G      -0.134300
     28 C35          1.7450    -3.3400     1.5390 ca         1 G0G      -0.092250
     29 C36          3.0360    -3.6360     1.1450 ca         1 G0G      -0.101500
     30 C37          3.9760    -4.0170     2.0870 ca         1 G0G      -0.103000
     31 C39          3.6240    -4.1000     3.4210 ca         1 G0G      -0.101500
     32 C38          2.3330    -3.8000     3.8140 ca         1 G0G      -0.092250
     33 O41          2.1980    -0.9980    -0.6460 o          1 G0G      -0.593050
     34 C26          1.9190     1.5430    -0.6900 ca         1 G0G      -0.156000
     35 C19          1.0140     2.5840    -0.7800 ca         1 G0G      -0.000500
     36 C3           1.4040     3.7950    -1.3200 ca         1 G0G      -0.131250
     37 C4           2.7010     3.9650    -1.7710 ca         1 G0G      -0.046000
     38 C1           3.6050     2.9230    -1.6810 ca         1 G0G      -0.131250
     39 C17          3.2160     1.7140    -1.1360 ca         1 G0G      -0.000500
     40 H71          3.7880    -0.7080     1.0740 h1         1 G0G       0.029700
     41 H72          3.2720    -1.0820     2.7250 h1         1 G0G       0.029700
     42 H13          4.8400     1.3670     0.5450 ha         1 G0G       0.119250
     43 H29          5.9820     3.3930     1.3610 ha         1 G0G       0.106750
     44 H31          5.7520     4.0730     3.7200 ha         1 G0G       0.100500
     45 H30          4.3740     2.7290     5.2620 ha         1 G0G       0.106750
     46 H14          3.2300     0.7030     4.4440 ha         1 G0G       0.119250
     47 H23          1.3930     0.3220     3.6110 h1         1 G0G       0.090700
     48 H211         0.4440     2.3580     3.2150 h1         1 G0G       0.023950
     49 H212         0.7160     2.1400     1.4720 h1         1 G0G       0.023950
     50 HN22        -1.6770     2.2440     2.5680 hn         1 G0G       0.242800
     51 H251        -1.5780     0.4230     3.9600 h1         1 G0G       0.023950
     52 H252        -2.3900    -0.2180     2.5040 h1         1 G0G       0.023950
     53 H24         -0.3470    -1.1320     1.6350 h1         1 G0G       0.090700
     54 H18         -1.3930    -3.5010     6.3300 ha         1 G0G       0.127250
     55 H2          -3.6540    -3.7670     7.2770 ha         1 G0G       0.108500
     56 H6          -5.1740    -1.8290     7.4000 ha         1 G0G       0.102000
     57 H5          -4.4310     0.3760     6.5820 ha         1 G0G       0.108500
     58 H20         -2.1680     0.6420     5.6390 ha         1 G0G       0.127250
     59 H331        -0.2800    -3.7070     4.1600 h1         1 G0G       0.029700
     60 H332        -0.6990    -3.3110     2.4870 h1         1 G0G       0.029700
     61 H35          1.0100    -3.0420     0.8020 ha         1 G0G       0.119250
     62 H36          3.3130    -3.5710     0.1000 ha         1 G0G       0.106750
     63 H37          4.9880    -4.2500     1.7790 ha         1 G0G       0.100500
     64 H39          4.3600    -4.3960     4.1580 ha         1 G0G       0.106750
     65 H38          2.0560    -3.8650     4.8600 ha         1 G0G       0.119250
     66 H19         -0.0010     2.4520    -0.4260 ha         1 G0G       0.127250
     67 H3           0.6950     4.6110    -1.3900 ha         1 G0G       0.108500
     68 H4           3.0070     4.9130    -2.1970 ha         1 G0G       0.102000
     69 H1           4.6210     3.0560    -2.0330 ha         1 G0G       0.108500
     70 H17          3.9250     0.8980    -1.0660 ha         1 G0G       0.127250
@<TRIPOS>BOND
     1     1     2 2   
     2     2     3 1   
     3     2    33 2   
     4     2    34 1   
     5     3     4 1   
     6     3    11 1   
     7     4     5 1   
     8     4    40 1   
     9     4    41 1   
    10     5     6 ar  
    11     5    10 ar  
    12     6     7 ar  
    13     6    42 1   
    14     7     8 ar  
    15     7    43 1   
    16     8     9 ar  
    17     8    44 1   
    18     9    10 ar  
    19     9    45 1   
    20    10    46 1   
    21    11    12 1   
    22    11    15 1   
    23    11    47 1   
    24    12    13 1   
    25    12    48 1   
    26    12    49 1   
    27    13    14 1   
    28    13    50 1   
    29    14    15 1   
    30    14    51 1   
    31    14    52 1   
    32    15    16 1   
    33    15    53 1   
    34    16    17 1   
    35    16    26 1   
    36    17    18 2   
    37    17    19 1   
    38    17    25 2   
    39    19    20 ar  
    40    19    24 ar  
    41    20    21 ar  
    42    20    54 1   
    43    21    22 ar  
    44    21    55 1   
    45    22    23 ar  
    46    22    56 1   
    47    23    24 ar  
    48    23    57 1   
    49    24    58 1   
    50    26    27 1   
    51    26    59 1   
    52    26    60 1   
    53    27    28 ar  
    54    27    32 ar  
    55    28    29 ar  
    56    28    61 1   
    57    29    30 ar  
    58    29    62 1   
    59    30    31 ar  
    60    30    63 1   
    61    31    32 ar  
    62    31    64 1   
    63    32    65 1   
    64    34    35 ar  
    65    34    39 ar  
    66    35    36 ar  
    67    35    66 1   
    68    36    37 ar  
    69    36    67 1   
    70    37    38 ar  
    71    37    68 1   
    72    38    39 ar  
    73    38    69 1   
    74    39    70 1   
@<TRIPOS>SUBSTRUCTURE
     1 G0G         1 TEMP              0 ****  ****    0 ROOT
