@<TRIPOS>MOLECULE
molecule
   70    72     1     0     0
SMALL
bcc


@<TRIPOS>ATOM
      1 C12          0.0000     0.0000     0.0000 c3         1 G0P       0.097000
      2 C13          1.5490     0.0000     0.0000 c3         1 G0P      -0.095900
      3 C14          1.8600     0.0000     1.5200 c3         1 G0P      -0.095900
      4 C15          0.7300    -0.8720     2.1050 c3         1 G0P       0.097000
      5 N16         -0.3810    -0.8570     1.1370 n          1 G0P      -0.499800
      6 C17         -1.5480    -1.5180     1.2710 c          1 G0P       0.661100
      7 O18         -1.7520    -2.1960     2.2550 o          1 G0P      -0.569100
      8 C19         -2.6000    -1.4120     0.1970 c3         1 G0P       0.052700
      9 C20         -3.0190     0.0510     0.0360 c3         1 G0P      -0.098400
     10 C21         -3.9950     0.1760    -1.1360 c3         1 G0P      -0.075400
     11 C22         -4.4130     1.6380    -1.2980 c3         1 G0P      -0.113400
     12 C23         -5.3890     1.7620    -2.4700 c3         1 G0P       0.090800
     13 N24         -5.7900     3.1670    -2.6270 nz         1 G0P      -0.811600
     14 N25         -3.7670    -2.2140     0.5760 ns         1 G0P      -0.577900
     15 C26         -3.7970    -3.5320     0.2960 c          1 G0P       0.690700
     16 O27         -2.8570    -4.0560    -0.2710 o          1 G0P      -0.602100
     17 C28         -4.9710    -4.3410     0.6780 ca         1 G0P      -0.193600
     18 C29         -5.0060    -5.7080     0.3880 ca         1 G0P      -0.050000
     19 C30         -6.1030    -6.4580     0.7450 ca         1 G0P      -0.187000
     20 C31         -7.1760    -5.8590     1.3930 ca         1 G0P       0.178100
     21 C32         -7.1460    -4.4990     1.6840 ca         1 G0P      -0.187000
     22 C33         -6.0500    -3.7430     1.3340 ca         1 G0P      -0.050000
     23 O34         -8.2590    -6.6000     1.7390 os         1 G0P      -0.301900
     24 C35         -8.2230    -7.9910     1.4110 c3         1 G0P       0.334900
     25 O36         -8.2070    -8.1460    -0.0090 os         1 G0P      -0.419600
     26 C37         -8.1450    -9.5040    -0.4470 c3         1 G0P       0.155100
     27 C38         -8.1030    -9.5460    -1.9760 c3         1 G0P       0.149400
     28 O39         -6.8900    -8.9450    -2.4360 oh         1 G0P      -0.604800
     29 C40         -9.3820   -10.2560     0.0500 c3         1 G0P       0.097100
     30 O41        -10.5560    -9.6730    -0.5180 oh         1 G0P      -0.580800
     31 C42         -9.4500   -10.1590     1.5770 c3         1 G0P       0.131100
     32 O43        -10.6400   -10.7950     2.0450 oh         1 G0P      -0.585800
     33 C44         -9.4640    -8.6820     1.9840 c3         1 G0P       0.126100
     34 O45         -9.4540    -8.5790     3.4090 oh         1 G0P      -0.595800
     35 H121        -0.3750    -0.4180    -0.9270 h1         1 G0P       0.046950
     36 H122        -0.3750     1.0060     0.1460 h1         1 G0P       0.046950
     37 H132         1.9350    -0.8950    -0.4730 hc         1 G0P       0.060950
     38 H131         1.9340     0.8950    -0.4730 hc         1 G0P       0.060950
     39 H141         1.8110     1.0060     1.9190 hc         1 G0P       0.060950
     40 H142         2.8270    -0.4500     1.7110 hc         1 G0P       0.060950
     41 H151         1.0830    -1.8870     2.2430 h1         1 G0P       0.046950
     42 H152         0.3990    -0.4590     3.0500 h1         1 G0P       0.046950
     43 H191        -2.1990    -1.7780    -0.7400 h1         1 G0P       0.099700
     44 H201        -3.5010     0.3910     0.9450 hc         1 G0P       0.062700
     45 H202        -2.1430     0.6580    -0.1570 hc         1 G0P       0.062700
     46 H211        -3.5130    -0.1650    -2.0450 hc         1 G0P       0.065200
     47 H212        -4.8710    -0.4310    -0.9430 hc         1 G0P       0.065200
     48 H222        -3.5370     2.2450    -1.4920 hc         1 G0P       0.064700
     49 H221        -4.8950     1.9790    -0.3900 hc         1 G0P       0.064700
     50 H231        -4.9070     1.4210    -3.3790 hx         1 G0P       0.115200
     51 H232        -6.2650     1.1560    -2.2770 hx         1 G0P       0.115200
     52 H242        -6.2350     3.4820    -1.7870 hn         1 G0P       0.457467
     53 H241        -4.9810     3.7280    -2.8060 hn         1 G0P       0.457467
     54 H251        -4.5150    -1.7960     1.0930 hn         1 G0P       0.317500
     55 H291        -4.1700    -6.1760    -0.1170 ha         1 G0P       0.138000
     56 H301        -6.1300    -7.5170     0.5210 ha         1 G0P       0.152000
     57 H321        -7.9840    -4.0350     2.1910 ha         1 G0P       0.152000
     58 H331        -6.0280    -2.6840     1.5610 ha         1 G0P       0.138000
     59 H351        -7.3340    -8.4430     1.8320 h2         1 G0P       0.049700
     60 H371        -7.2550    -9.9710    -0.0440 h1         1 G0P       0.053700
     61 H381        -8.1450   -10.5760    -2.3100 h1         1 G0P       0.041200
     62 H382        -8.9500    -9.0020    -2.3760 h1         1 G0P       0.041200
     63 H391        -6.8060    -9.0780    -3.3660 ho         1 G0P       0.407000
     64 H401        -9.3120   -11.2970    -0.2410 h1         1 G0P       0.047700
     65 H411       -11.0860   -10.3480    -0.9060 ho         1 G0P       0.410000
     66 H421        -8.5820   -10.6430     2.0080 h1         1 G0P       0.050700
     67 H431       -10.4150   -11.5920     2.4950 ho         1 G0P       0.411000
     68 H441       -10.3540    -8.2080     1.5890 h1         1 G0P       0.086700
     69 H451       -10.1860    -8.0560     3.6920 ho         1 G0P       0.419000
     70 H243        -6.4290     3.2480    -3.3930 hn         1 G0P       0.457467
@<TRIPOS>BOND
     1    30    29 1
     2    27    28 1
     3    27    26 1
     4    29    26 1
     5    29    31 1
     6    32    31 1
     7    26    25 1
     8    31    33 1
     9    25    24 1
    10    33    24 1
    11    33    34 1
    12    24    23 1
    13    23    20 1
    14    20    21 ar
    15    20    19 ar
    16    21    22 ar
    17    19    18 ar
    18    22    17 ar
    19    18    17 ar
    20    17    15 1
    21     3     2 1
    22     3     4 1
    23     2     1 1
    24    16    15 2
    25     4     5 1
    26    15    14 1
    27    14     8 1
    28     5     1 1
    29     5     6 1
    30     8     6 1
    31     8     9 1
    32     6     7 2
    33     9    10 1
    34    10    11 1
    35    11    12 1
    36    12    13 1
    37     1    35 1
    38     1    36 1
    39     2    37 1
    40     2    38 1
    41     3    39 1
    42     3    40 1
    43     4    41 1
    44     4    42 1
    45     8    43 1
    46     9    44 1
    47     9    45 1
    48    10    46 1
    49    10    47 1
    50    11    48 1
    51    11    49 1
    52    12    50 1
    53    12    51 1
    54    13    52 1
    55    13    53 1
    56    14    54 1
    57    18    55 1
    58    19    56 1
    59    21    57 1
    60    22    58 1
    61    24    59 1
    62    26    60 1
    63    27    61 1
    64    27    62 1
    65    28    63 1
    66    29    64 1
    67    30    65 1
    68    31    66 1
    69    32    67 1
    70    33    68 1
    71    34    69 1
    72    70    13 1
@<TRIPOS>SUBSTRUCTURE
     1 G0P         1 TEMP              0 ****  ****    0 ROOT
