@<TRIPOS>MOLECULE
G0S
   32    32     1     0     0
SMALL
bcc


@<TRIPOS>ATOM
      1 C1         -0.2970    0.4860    0.1780 c3        1 G0S      0.178200
      2 C2          1.1920    0.1390    0.0830 c3        1 G0S      0.096100
      3 O2          1.4310   -1.0390   -0.6680 oh        1 G0S     -0.621800
      4 C3          1.7410   -0.1370    1.4930 c3        1 G0S      0.107100
      5 O3          3.1480   -0.3280    1.4640 oh        1 G0S     -0.620800
      6 C4          1.4750    1.0670    2.4120 c3        1 G0S      0.126100
      7 O4          2.2560    2.1950    2.0570 oh        1 G0S     -0.596800
      8 C5         -0.0090    1.4520    2.3440 c3        1 G0S      0.090100
      9 O5         -0.4770    1.6290    1.0060 os        1 G0S     -0.392600
     10 C6         -0.2620    2.7920    3.0420 c3        1 G0S      0.147400
     11 O6         -1.6430    3.0640    3.1410 oh        1 G0S     -0.610800
     12 S1         -0.9060    0.9170   -1.4330 ss        1 G0S     -0.335200
     13 C1A        -2.5290    0.1680   -1.4640 c3        1 G0S      0.038700
     14 C3A        -3.9420   -1.1340   -3.0830 c         1 G0S      0.917600
     15 C2A        -2.9230    0.0210   -2.9020 c3        1 G0S     -0.208400
     16 O3A        -3.8680   -2.1240   -2.3020 o         1 G0S     -0.836300
     17 OXT        -4.7750   -1.0170   -4.0220 o         1 G0S     -0.836300
     18 H1         -0.8710   -0.3830    0.5980 h2        1 G0S      0.071700
     19 H2          1.7550    0.9990   -0.3780 h1        1 G0S      0.072700
     20 HA          0.8500   -1.0000   -1.4450 ho        1 G0S      0.442000
     21 H3          3.3280   -0.9280    0.7290 ho        1 G0S      0.430000
     22 H4          1.7340    0.7780    3.4710 h1        1 G0S      0.044700
     23 HB          3.1290    1.8650    1.8020 ho        1 G0S      0.419000
     24 H5         -0.6090    0.6330    2.8330 h1        1 G0S      0.051700
     25 H6A         0.2640    3.6100    2.4830 h1        1 G0S      0.058200
     26 H6B         0.1100    2.7440    4.0990 h1        1 G0S      0.058200
     27 H6         -2.0000    3.0410    2.2420 ho        1 G0S      0.420000
     28 H1A        -2.5020   -0.8410   -0.9760 h1        1 G0S      0.074700
     29 H1B        -3.2460    0.8130   -0.9070 h1        1 G0S      0.074700
     30 H2A        -2.0330   -0.2310   -3.5340 hc        1 G0S      0.041200
     31 H2B        -3.3720    0.9660   -3.2950 hc        1 G0S      0.041200
     32 HC          1.2520   -1.0580    1.9150 h1        1 G0S      0.057700
@<TRIPOS>BOND
     1    1    2 1   
     2    1    9 1   
     3    1   12 1   
     4    1   18 1   
     5    2    3 1   
     6    2    4 1   
     7    2   19 1   
     8    3   20 1   
     9    4    5 1   
    10    4    6 1   
    11    4   32 1   
    12    5   21 1   
    13    6    7 1   
    14    6    8 1   
    15    6   22 1   
    16    7   23 1   
    17    8    9 1   
    18    8   10 1   
    19    8   24 1   
    20   10   11 1   
    21   10   25 1   
    22   10   26 1   
    23   11   27 1   
    24   12   13 1   
    25   13   15 1   
    26   13   28 1   
    27   13   29 1   
    28   14   15 1   
    29   14   16 1   
    30   14   17 1   
    31   15   30 1   
    32   15   31 1   
@<TRIPOS>SUBSTRUCTURE
     1 G0S         1 TEMP              0 ****  ****    0 ROOT
