@<TRIPOS>MOLECULE
molecule
   32    32     1     0     0
SMALL
bcc


@<TRIPOS>ATOM
      1 C1           0.0000     0.0000     0.0000 c3         1 G0S       0.225200
      2 C2           1.5300     0.0000     0.0000 c3         1 G0S       0.131100
      3 O2           2.0090    -1.1680    -0.6710 oh         1 G0S      -0.599800
      4 C3           2.0330     0.0000     1.4480 c3         1 G0S       0.123100
      5 O3           3.4600     0.0740     1.4580 oh         1 G0S      -0.599800
      6 C4           1.4510     1.2140     2.1780 c3         1 G0S       0.102100
      7 O4           1.9260     2.4130     1.5650 oh         1 G0S      -0.576800
      8 C5          -0.0770     1.1670     2.0940 c3         1 G0S       0.141100
      9 O5          -0.4760     1.1380     0.7230 os         1 G0S      -0.371600
     10 C6          -0.6630     2.4070     2.7700 c3         1 G0S       0.151400
     11 O6          -2.0880     2.3070     2.7950 oh         1 G0S      -0.586800
     12 S1          -0.6060     0.0710    -1.7090 ss         1 G0S      -0.368200
     13 C1A         -2.4010    -0.0910    -1.5130 c3         1 G0S       0.061700
     14 C3A         -4.5620    -0.1830    -2.7250 c          1 G0S       0.896600
     15 C2A         -3.0700    -0.0480    -2.8880 c3         1 G0S      -0.174400
     16 O3A         -5.0420    -0.3020    -1.6230 o          1 G0S      -0.848300
     17 OXT         -5.3590    -0.1720    -3.8070 o          1 G0S      -0.848300
     18 H1          -0.3590    -0.9040     0.4770 h2         1 G0S       0.055700
     19 H2           1.8910     0.8870    -0.5060 h1         1 G0S       0.080700
     20 HA           2.4490    -0.9160    -1.4660 ho         1 G0S       0.412000
     21 H3           3.8080    -0.6190     1.9940 ho         1 G0S       0.397000
     22 H4           1.7550     1.1880     3.2180 h1         1 G0S       0.027700
     23 HB           2.5550     2.8290     2.1320 ho         1 G0S       0.395000
     24 H5          -0.4370     0.2740     2.5920 h1         1 G0S       0.049700
     25 H6A         -0.3730     3.2920     2.2160 h1         1 G0S       0.027200
     26 H6B         -0.2890     2.4770     3.7840 h1         1 G0S       0.027200
     27 H6          -2.4450     3.0140     3.3080 ho         1 G0S       0.396000
     28 H1A         -2.7740     0.7250    -0.9050 h1         1 G0S       0.073200
     29 H1B         -2.6280    -1.0340    -1.0300 h1         1 G0S       0.073200
     30 H2A         -2.6980    -0.8640    -3.4960 hc         1 G0S       0.041200
     31 H2B         -2.8430     0.8950    -3.3710 hc         1 G0S       0.041200
     32 HC           1.7090    -0.9080     1.9420 h1         1 G0S       0.045700
@<TRIPOS>BOND
     1     1     2 1
     2     1     9 1
     3     1    12 1
     4     2     3 1
     5     2     4 1
     6     4     5 1
     7     4     6 1
     8     6     7 1
     9     6     8 1
    10     8     9 1
    11     8    10 1
    12    10    11 1
    13    12    13 1
    14    13    15 1
    15    15    14 1
    16    14    16 1
    17    14    17 1
    18     1    18 1
    19     2    19 1
    20     3    20 1
    21     6    22 1
    22     7    23 1
    23     8    24 1
    24    10    25 1
    25    10    26 1
    26    11    27 1
    27    13    28 1
    28    13    29 1
    29     5    21 1
    30    15    30 1
    31    15    31 1
    32     4    32 1
@<TRIPOS>SUBSTRUCTURE
     1 G0S         1 TEMP              0 ****  ****    0 ROOT
