@<TRIPOS>MOLECULE
molecule
   70    73     1     0     0
SMALL
bcc


@<TRIPOS>ATOM
      1 C1           0.0000     0.0000     0.0000 ca         1 G0T      -0.154000
      2 C2           1.3850     0.0000     0.0000 ca         1 G0T      -0.132000
      3 C3          -0.6920     0.0000     1.1930 ca         1 G0T      -0.116000
      4 C4           2.0830     0.0000     1.1940 ca         1 G0T      -0.142000
      5 C5           3.7930    -3.5230     6.2850 ca         1 G0T      -0.153000
      6 C6          -4.9680     1.2000     4.5610 ca         1 G0T      -0.077500
      7 C7          -4.9680    -1.1970     4.5630 ca         1 G0T      -0.077500
      8 C8           3.7320    -4.8070     6.8030 ca         1 G0T      -0.167000
      9 C9          -6.3280     1.2030     4.3120 ca         1 G0T      -0.201000
     10 C10         -6.3290    -1.1980     4.3250 ca         1 G0T      -0.201000
     11 C11          0.0060     0.0010     2.4020 ca         1 G0T      -0.096600
     12 C12          1.4210    -3.2860     6.5850 ca         1 G0T      -0.041600
     13 C13         -4.2890     0.0030     4.6860 ca         1 G0T      -0.125300
     14 C14          1.4010     0.0010     2.3940 ca         1 G0T      -0.011300
     15 C15          2.6500    -2.7620     6.1750 ca         1 G0T      -0.092300
     16 C16          2.5190    -5.3420     7.2100 ca         1 G0T       0.060100
     17 C17          1.3570    -4.5890     7.0970 ca         1 G0T       0.068100
     18 C18         -7.0120     0.0020     4.1930 ca         1 G0T       0.121100
     19 C19         -0.7310     0.0020     3.6840 c          1 G0T       0.659700
     20 C21          2.2680   -10.7350     8.9190 c          1 G0T       0.891600
     21 C22          0.1920    -6.2480     8.3360 c3         1 G0T       0.099400
     22 C23          1.2040    -7.2430     7.7660 c3         1 G0T       0.100100
     23 C25         -2.8070     0.0030     4.9580 c3         1 G0T       0.157300
     24 C26          2.1630     0.0010     3.6950 c3         1 G0T       0.201100
     25 C27          2.7260    -1.3660     5.6120 c3         1 G0T       0.226100
     26 C28          2.9890    -2.2530     3.3740 c3         1 G0T       0.145100
     27 C30          1.2770    -8.4770     8.6690 c3         1 G0T      -0.057400
     28 N1          -2.0780     0.0010     3.6870 ns         1 G0T      -0.586900
     29 N2           2.2030    -1.3630     4.2390 n3         1 G0T      -0.668600
     30 O1          -0.1270    -1.5990     7.4420 o          1 G0T      -0.840800
     31 O2           3.0220   -11.7870     8.5580 o          1 G0T      -0.867300
     32 O3          -0.1200     0.0020     4.7350 o          1 G0T      -0.510100
     33 O4          -0.5240    -2.5940     5.4980 o          1 G0T      -0.840800
     34 O5           1.6490   -10.7650     9.9560 o          1 G0T      -0.867300
     35 O6           0.1590    -5.0950     7.4880 os         1 G0T      -0.298900
     36 O7           2.4840    -6.6040     7.7190 os         1 G0T      -0.324900
     37 O8          -8.3500     0.0020     3.9590 os         1 G0T      -0.336900
     38 H1          -0.5410    -0.0000    -0.9390 ha         1 G0T       0.112000
     39 H2           1.9240    -0.0010    -0.9400 ha         1 G0T       0.111000
     40 H3          -1.7760     0.0000     1.1920 ha         1 G0T       0.121000
     41 H4           3.1660     0.0000     1.1880 ha         1 G0T       0.125000
     42 H5           4.7450    -3.1160     5.9660 ha         1 G0T       0.101000
     43 H6          -4.4340     2.1370     4.6550 ha         1 G0T       0.148500
     44 H7          -4.4350    -2.1340     4.6640 ha         1 G0T       0.148500
     45 H8           4.6360    -5.3980     6.8850 ha         1 G0T       0.121000
     46 H9          -6.8590     2.1420     4.2110 ha         1 G0T       0.128000
     47 H10         -6.8610    -2.1370     4.2300 ha         1 G0T       0.128000
     48 H11          0.4930    -5.9560     9.3350 h1         1 G0T       0.054700
     49 H12         -0.7900    -6.7060     8.3650 h1         1 G0T       0.054700
     50 H13          0.9050    -7.5330     6.7660 h1         1 G0T       0.050700
     51 H14         -8.5460     1.8210     3.0100 h1         1 G0T       0.032700
     52 H15         -8.8540     1.8370     4.7520 h1         1 G0T       0.032700
     53 H16        -10.0450     1.1330     3.6500 h1         1 G0T       0.032700
     54 H17         -2.5440     0.8870     5.5250 h1         1 G0T       0.089200
     55 H18         -2.5440    -0.8820     5.5260 h1         1 G0T       0.089200
     56 H19          3.1740     0.3500     3.5210 h1         1 G0T       0.042700
     57 H20          1.6710     0.6580     4.4020 h1         1 G0T       0.042700
     58 H21          2.1340    -0.6970     6.2260 h1         1 G0T       0.040700
     59 H22          3.7570    -1.0340     5.6070 h1         1 G0T       0.040700
     60 H23          2.5520    -2.2710     2.3820 h1         1 G0T       0.024033
     61 H24          2.9860    -3.2540     3.7880 h1         1 G0T       0.024033
     62 H25          4.0070    -1.8900     3.3130 h1         1 G0T       0.024033
     63 H26          3.1890    -9.1030     7.9100 hc         1 G0T       0.036700
     64 H27          1.8040    -9.8040     7.0620 hc         1 G0T       0.036700
     65 H28          1.6700    -8.1930     9.6380 hc         1 G0T       0.054200
     66 H29          0.2850    -8.8950     8.7900 hc         1 G0T       0.054200
     67 H30         -2.5810     0.0240     2.8220 hn         1 G0T       0.291500
     68 C29          2.1970    -9.5210     8.0310 c3         1 G0T      -0.179400
     69 C20          0.1960    -2.4750     6.4700 c          1 G0T       0.909200
     70 C24         -8.9870     1.2750     3.8350 c3         1 G0T       0.132700
@<TRIPOS>BOND
     1     1     3 ar
     2     1     2 ar
     3     3    11 ar
     4     2     4 ar
     5    11    19 1
     6    11    14 ar
     7     4    14 ar
     8    28    19 1
     9    28    23 1
    10    19    32 2
    11    14    24 1
    12    23    13 1
    13    33    69 1
    14     7    13 ar
    15     7    10 ar
    16    30    69 1
    17    13     6 ar
    18    24    29 1
    19    69    12 1
    20    29    25 1
    21    29    26 1
    22    25    15 1
    23    10    18 ar
    24     6     9 ar
    25    12    15 ar
    26    12    17 ar
    27    15     5 ar
    28    18     9 ar
    29    18    37 1
    30    35    17 1
    31    35    21 1
    32    17    16 ar
    33     5     8 ar
    34    70    37 1
    35    21    22 1
    36    16     8 ar
    37    16    36 1
    38    22    36 1
    39    22    27 1
    40    27    68 1
    41    34    20 1
    42    68    20 1
    43    20    31 1
    44     1    38 1
    45     2    39 1
    46     3    40 1
    47     4    41 1
    48     5    42 1
    49     6    43 1
    50     7    44 1
    51     8    45 1
    52     9    46 1
    53    10    47 1
    54    21    48 1
    55    21    49 1
    56    22    50 1
    57    70    51 1
    58    70    52 1
    59    70    53 1
    60    23    54 1
    61    23    55 1
    62    24    56 1
    63    24    57 1
    64    25    58 1
    65    25    59 1
    66    26    60 1
    67    26    61 1
    68    26    62 1
    69    68    63 1
    70    68    64 1
    71    27    65 1
    72    27    66 1
    73    28    67 1
@<TRIPOS>SUBSTRUCTURE
     1 G0T         1 TEMP              0 ****  ****    0 ROOT
