@<TRIPOS>MOLECULE
G0W
  105   107     1     0     0
SMALL
bcc


@<TRIPOS>ATOM
      1 C01          0.0000     0.0000     0.0000 c3         1 G0W      -0.006100
      2 C02          1.5300     0.0000     0.0000 c3         1 G0W      -0.096200
      3 N03          2.0190     0.0000     1.3850 n4         1 G0W       0.069200
      4 C04          3.4840    -0.1160     1.3870 c3         1 G0W      -0.096200
      5 C05          3.9860    -0.2170     2.8280 c3         1 G0W      -0.006100
      6 C06          1.6270     1.2520     2.0440 c3         1 G0W      -0.035200
      7 C07          2.2320     2.4370     1.2890 c3         1 G0W      -0.051400
      8 C08          1.8230     3.7420     1.9750 c3         1 G0W      -0.011400
      9 C09          2.4280     4.9270     1.2200 c3         1 G0W      -0.049400
     10 C10          2.0190     6.2330     1.9060 c3         1 G0W       0.021000
     11 N11          2.6000     7.3670     1.1840 n          1 G0W       0.053000
     12 C12          1.8990     7.9490     0.1630 cc         1 G0W      -0.085600
     13 C13          0.5380     7.4260    -0.2170 c3         1 G0W       0.052100
     14 C14          2.4340     8.9960    -0.5030 cd         1 G0W      -0.284200
     15 C15          3.7140     9.4690    -0.1280 c          1 G0W       0.621700
     16 O16          4.2170    10.4120    -0.7140 o          1 G0W      -0.645500
     17 N17          4.3720     8.8680     0.8840 n          1 G0W      -0.090400
     18 C18          5.6960     9.3500     1.2820 c3         1 G0W       0.042000
     19 C19          5.5470    10.4270     2.3580 c3         1 G0W      -0.046400
     20 C20          6.9300    10.9300     2.7730 c3         1 G0W      -0.011400
     21 C21          6.7800    12.0070     3.8490 c3         1 G0W      -0.051400
     22 C22          8.1640    12.5100     4.2630 c3         1 G0W      -0.037200
     23 N23          8.0200    13.5440     5.2970 n4         1 G0W       0.068200
     24 C24          7.2320    14.6630     4.7620 c3         1 G0W      -0.094200
     25 C25          7.8770    15.1720     3.4720 c3         1 G0W      -0.007100
     26 C26          7.3350    12.9760     6.4650 c3         1 G0W      -0.094200
     27 C27          8.2030    11.8780     7.0820 c3         1 G0W      -0.007100
     28 C28          9.3490    14.0270     5.6950 c3         1 G0W       0.021100
     29 C29          9.2000    15.1020     6.7410 ca         1 G0W      -0.040300
     30 C30          7.9410    15.4810     7.1680 ca         1 G0W      -0.234000
     31 C31          7.8040    16.4660     8.1280 ca         1 G0W       0.003000
     32 C32          8.9270    17.0720     8.6610 ca         1 G0W      -0.084000
     33 C33         10.1860    16.6920     8.2350 ca         1 G0W       0.034000
     34 C34         10.3230    15.7040     7.2790 ca         1 G0W      -0.423200
     35 N35         11.6710    15.2930     6.8260 no         1 G0W       1.041200
     36 O36         12.6610    15.7580     7.3620 o          1 G0W      -0.431500
     37 O37         11.7900    14.4920     5.9160 o          1 G0W      -0.431500
     38 C38          3.8130     7.8300     1.5350 c          1 G0W       0.601500
     39 O39          4.4160     7.3010     2.4480 o          1 G0W      -0.719500
     40 C40          1.4380    -1.1380     2.1090 c3         1 G0W       0.019100
     41 C41          1.8390    -2.4230     1.4320 ca         1 G0W      -0.039300
     42 C42          2.6460    -2.3900     0.3100 ca         1 G0W      -0.236000
     43 C43          3.0130    -3.5700    -0.3120 ca         1 G0W       0.003000
     44 C44          2.5730    -4.7810     0.1880 ca         1 G0W      -0.082000
     45 C45          1.7670    -4.8130     1.3110 ca         1 G0W       0.035000
     46 C46          1.4030    -3.6350     1.9350 ca         1 G0W      -0.424200
     47 N47          0.5440    -3.6700     3.1410 no         1 G0W       1.042200
     48 O48          0.0860    -4.7290     3.5300 o          1 G0W      -0.431000
     49 O49          0.2950    -2.6400     3.7410 o          1 G0W      -0.431000
     50 H01         -0.3610     0.6790    -0.7630 hc         1 G0W       0.036867
     51 H01A        -0.3610    -1.0000    -0.2060 hc         1 G0W       0.036867
     52 H01B        -0.3610     0.3210     0.9690 hc         1 G0W       0.036867
     53 H02          1.8910     0.8850    -0.5110 hx         1 G0W       0.104950
     54 H02A         1.8910    -0.8840    -0.5110 hx         1 G0W       0.104950
     55 H04          3.7760    -1.0030     0.8390 hx         1 G0W       0.104950
     56 H04A         3.9150     0.7580     0.9140 hx         1 G0W       0.104950
     57 H05          3.2030     0.0990     3.5060 hc         1 G0W       0.036867
     58 H05A         4.8530     0.4210     2.9540 hc         1 G0W       0.036867
     59 H05B         4.2590    -1.2430     3.0440 hc         1 G0W       0.036867
     60 H06          0.5470     1.3380     2.0430 hx         1 G0W       0.090700
     61 H06A         1.9880     1.2520     3.0650 hx         1 G0W       0.090700
     62 H07          3.3120     2.3520     1.2900 hc         1 G0W       0.037700
     63 H07A         1.8720     2.4380     0.2680 hc         1 G0W       0.037700
     64 H08          2.1840     3.7420     2.9960 hc         1 G0W       0.028700
     65 H08A         0.7430     3.8270     1.9740 hc         1 G0W       0.028700
     66 H09          3.5080     4.8420     1.2210 hc         1 G0W       0.030200
     67 H09A         2.0670     4.9280     0.1990 hc         1 G0W       0.030200
     68 H10          0.9390     6.3180     1.9050 h1         1 G0W       0.051200
     69 H10A         2.3800     6.2320     2.9280 h1         1 G0W       0.051200
     70 H13          0.6400     6.4470    -0.6690 hc         1 G0W       0.025700
     71 H13A        -0.0810     7.3520     0.6690 hc         1 G0W       0.025700
     72 H13B         0.0750     8.1040    -0.9240 hc         1 G0W       0.025700
     73 H14          1.8900     9.4660    -1.3140 ha         1 G0W       0.162000
     74 H18          6.2020     9.7690     0.4200 h1         1 G0W       0.053200
     75 H18A         6.2780     8.5250     1.6750 h1         1 G0W       0.053200
     76 H19          4.9650    11.2520     1.9640 hc         1 G0W       0.029700
     77 H19A         5.0420    10.0080     3.2200 hc         1 G0W       0.029700
     78 H20          7.5120    10.1050     3.1660 hc         1 G0W       0.028700
     79 H20A         7.4350    11.3490     1.9110 hc         1 G0W       0.028700
     80 H21          6.2750    11.5880     4.7110 hc         1 G0W       0.036700
     81 H21A         6.1990    12.8320     3.4550 hc         1 G0W       0.036700
     82 H22          8.6690    12.9290     3.4010 hx         1 G0W       0.091200
     83 H22A         8.7450    11.6850     4.6560 hx         1 G0W       0.091200
     84 H24          6.2230    14.3270     4.5530 hx         1 G0W       0.104700
     85 H24A         7.2020    15.4640     5.4910 hx         1 G0W       0.104700
     86 H25          8.8440    14.7000     3.3410 hc         1 G0W       0.036700
     87 H25A         7.2410    14.9300     2.6300 hc         1 G0W       0.036700
     88 H25B         8.0050    16.2460     3.5310 hc         1 G0W       0.036700
     89 H26          6.3850    12.5560     6.1580 hx         1 G0W       0.104700
     90 H26A         7.1640    13.7560     7.1980 hx         1 G0W       0.104700
     91 H27          8.9610    11.5750     6.3700 hc         1 G0W       0.036700
     92 H27A         8.6790    12.2550     7.9790 hc         1 G0W       0.036700
     93 H27B         7.5820    11.0260     7.3340 hc         1 G0W       0.036700
     94 H28          9.9250    13.2050     6.1020 hx         1 G0W       0.115700
     95 H28A         9.8590    14.4340     4.8300 hx         1 G0W       0.115700
     96 H30          7.0620    15.0060     6.7500 ha         1 G0W       0.152000
     97 H31          6.8180    16.7640     8.4620 ha         1 G0W       0.126000
     98 H32          8.8200    17.8460     9.4120 ha         1 G0W       0.139000
     99 H33         11.0660    17.1660     8.6540 ha         1 G0W       0.153000
    100 H40          1.8000    -1.1390     3.1300 hx         1 G0W       0.116200
    101 H40A         0.3580    -1.0520     2.1090 hx         1 G0W       0.116200
    102 H42          2.9910    -1.4410    -0.0820 ha         1 G0W       0.153000
    103 H43          3.6450    -3.5440    -1.1910 ha         1 G0W       0.126000
    104 H44          2.8590    -5.7040    -0.3000 ha         1 G0W       0.140000
    105 H45          1.4240    -5.7620     1.7050 ha         1 G0W       0.153000
@<TRIPOS>BOND
     1     1     2 1   
     2     1    50 1   
     3     1    51 1   
     4     1    52 1   
     5     2     3 1   
     6     2    53 1   
     7     2    54 1   
     8     3     4 1   
     9     3     6 1   
    10     3    40 1   
    11     4     5 1   
    12     4    55 1   
    13     4    56 1   
    14     5    57 1   
    15     5    58 1   
    16     5    59 1   
    17     6     7 1   
    18     6    60 1   
    19     6    61 1   
    20     7     8 1   
    21     7    62 1   
    22     7    63 1   
    23     8     9 1   
    24     8    64 1   
    25     8    65 1   
    26     9    10 1   
    27     9    66 1   
    28     9    67 1   
    29    10    11 1   
    30    10    68 1   
    31    10    69 1   
    32    11    12 1   
    33    11    38 1   
    34    12    13 1   
    35    12    14 2   
    36    13    70 1   
    37    13    71 1   
    38    13    72 1   
    39    14    15 1   
    40    14    73 1   
    41    15    16 2   
    42    15    17 1   
    43    17    18 1   
    44    17    38 1   
    45    18    19 1   
    46    18    74 1   
    47    18    75 1   
    48    19    20 1   
    49    19    76 1   
    50    19    77 1   
    51    20    21 1   
    52    20    78 1   
    53    20    79 1   
    54    21    22 1   
    55    21    80 1   
    56    21    81 1   
    57    22    23 1   
    58    22    82 1   
    59    22    83 1   
    60    23    24 1   
    61    23    26 1   
    62    23    28 1   
    63    24    25 1   
    64    24    84 1   
    65    24    85 1   
    66    25    86 1   
    67    25    87 1   
    68    25    88 1   
    69    26    27 1   
    70    26    89 1   
    71    26    90 1   
    72    27    91 1   
    73    27    92 1   
    74    27    93 1   
    75    28    29 1   
    76    28    94 1   
    77    28    95 1   
    78    29    30 ar  
    79    29    34 ar  
    80    30    31 ar  
    81    30    96 1   
    82    31    32 ar  
    83    31    97 1   
    84    32    33 ar  
    85    32    98 1   
    86    33    34 ar  
    87    33    99 1   
    88    34    35 1   
    89    35    36 1   
    90    35    37 1   
    91    38    39 2   
    92    40    41 1   
    93    40   100 1   
    94    40   101 1   
    95    41    42 ar  
    96    41    46 ar  
    97    42    43 ar  
    98    42   102 1   
    99    43    44 ar  
   100    43   103 1   
   101    44    45 ar  
   102    44   104 1   
   103    45    46 ar  
   104    45   105 1   
   105    46    47 1   
   106    47    48 1   
   107    47    49 1   
@<TRIPOS>SUBSTRUCTURE
     1 G0W         1 TEMP              0 ****  ****    0 ROOT
