@<TRIPOS>MOLECULE
molecule
  105   107     1     0     0
SMALL
bcc


@<TRIPOS>ATOM
      1 C01          0.0000     0.0000     0.0000 c3         1 G0W      -0.116100
      2 C02          1.5300     0.0000     0.0000 c3         1 G0W       0.060800
      3 N03          2.0190     0.0000     1.3850 n4         1 G0W      -0.571800
      4 C04          3.4840    -0.1160     1.3870 c3         1 G0W       0.060800
      5 C05          3.9860    -0.2170     2.8280 c3         1 G0W      -0.116100
      6 C06          1.6270     1.2520     2.0440 c3         1 G0W       0.099800
      7 C07          2.2320     2.4370     1.2890 c3         1 G0W      -0.107400
      8 C08          1.8230     3.7420     1.9750 c3         1 G0W      -0.075400
      9 C09          2.4280     4.9270     1.2200 c3         1 G0W      -0.104400
     10 C10          2.0190     6.2330     1.9060 c3         1 G0W       0.108000
     11 N11          2.6000     7.3670     1.1840 n          1 G0W      -0.364000
     12 C12          1.8990     7.9490     0.1630 cc         1 G0W       0.072400
     13 C13          0.5380     7.4260    -0.2170 c3         1 G0W      -0.061900
     14 C14          2.4340     8.9960    -0.5030 cd         1 G0W      -0.311200
     15 C15          3.7140     9.4690    -0.1280 c          1 G0W       0.702700
     16 O16          4.2170    10.4120    -0.7140 o          1 G0W      -0.610500
     17 N17          4.3720     8.8680     0.8840 n          1 G0W      -0.472400
     18 C18          5.6960     9.3500     1.2820 c3         1 G0W       0.113000
     19 C19          5.5470    10.4270     2.3580 c3         1 G0W      -0.100400
     20 C20          6.9300    10.9300     2.7730 c3         1 G0W      -0.074400
     21 C21          6.7800    12.0070     3.8490 c3         1 G0W      -0.106400
     22 C22          8.1640    12.5100     4.2630 c3         1 G0W       0.098800
     23 N23          8.0200    13.5440     5.2970 n4         1 G0W      -0.571800
     24 C24          7.2320    14.6630     4.7620 c3         1 G0W       0.062300
     25 C25          7.8770    15.1720     3.4720 c3         1 G0W      -0.116100
     26 C26          7.3350    12.9760     6.4650 c3         1 G0W       0.062300
     27 C27          8.2030    11.8780     7.0820 c3         1 G0W      -0.116100
     28 C28          9.3490    14.0270     5.6950 c3         1 G0W       0.158100
     29 C29          9.2000    15.1020     6.7410 ca         1 G0W      -0.078300
     30 C30          7.9410    15.4810     7.1680 ca         1 G0W      -0.204000
     31 C31          7.8040    16.4660     8.1280 ca         1 G0W      -0.063000
     32 C32          8.9270    17.0720     8.6610 ca         1 G0W      -0.103000
     33 C33         10.1860    16.6920     8.2350 ca         1 G0W      -0.040000
     34 C34         10.3230    15.7040     7.2790 ca         1 G0W      -0.136200
     35 N35         11.6710    15.2930     6.8260 no         1 G0W       0.289200
     36 O36         12.6610    15.7580     7.3620 o          1 G0W      -0.186000
     37 O37         11.7900    14.4920     5.9160 o          1 G0W      -0.186000
     38 C38          3.8130     7.8300     1.5350 c          1 G0W       0.813500
     39 O39          4.4160     7.3010     2.4480 o          1 G0W      -0.668500
     40 C40          1.4380    -1.1380     2.1090 c3         1 G0W       0.158100
     41 C41          1.8390    -2.4230     1.4320 ca         1 G0W      -0.078300
     42 C42          2.6460    -2.3900     0.3100 ca         1 G0W      -0.207000
     43 C43          3.0130    -3.5700    -0.3120 ca         1 G0W      -0.063000
     44 C44          2.5730    -4.7810     0.1880 ca         1 G0W      -0.101000
     45 C45          1.7670    -4.8130     1.3110 ca         1 G0W      -0.039000
     46 C46          1.4030    -3.6350     1.9350 ca         1 G0W      -0.137200
     47 N47          0.5440    -3.6700     3.1410 no         1 G0W       0.289200
     48 O48          0.0860    -4.7290     3.5300 o          1 G0W      -0.185500
     49 O49          0.2950    -2.6400     3.7410 o          1 G0W      -0.185500
     50 H01         -0.3610     0.6790    -0.7630 hc         1 G0W       0.071033
     51 H01A        -0.3610    -1.0000    -0.2060 hc         1 G0W       0.071033
     52 H01B        -0.3610     0.3210     0.9690 hc         1 G0W       0.071033
     53 H02          1.8910     0.8850    -0.5110 hx         1 G0W       0.112950
     54 H02A         1.8910    -0.8840    -0.5110 hx         1 G0W       0.112950
     55 H04          3.7760    -1.0030     0.8390 hx         1 G0W       0.112950
     56 H04A         3.9150     0.7580     0.9140 hx         1 G0W       0.112950
     57 H05          3.2030     0.0990     3.5060 hc         1 G0W       0.071033
     58 H05A         4.8530     0.4210     2.9540 hc         1 G0W       0.071033
     59 H05B         4.2590    -1.2430     3.0440 hc         1 G0W       0.071033
     60 H06          0.5470     1.3380     2.0430 hx         1 G0W       0.106200
     61 H06A         1.9880     1.2520     3.0650 hx         1 G0W       0.106200
     62 H07          3.3120     2.3520     1.2900 hc         1 G0W       0.062700
     63 H07A         1.8720     2.4380     0.2680 hc         1 G0W       0.062700
     64 H08          2.1840     3.7420     2.9960 hc         1 G0W       0.058200
     65 H08A         0.7430     3.8270     1.9740 hc         1 G0W       0.058200
     66 H09          3.5080     4.8420     1.2210 hc         1 G0W       0.060200
     67 H09A         2.0670     4.9280     0.1990 hc         1 G0W       0.060200
     68 H10          0.9390     6.3180     1.9050 h1         1 G0W       0.076700
     69 H10A         2.3800     6.2320     2.9280 h1         1 G0W       0.076700
     70 H13          0.6400     6.4470    -0.6690 hc         1 G0W       0.064033
     71 H13A        -0.0810     7.3520     0.6690 hc         1 G0W       0.064033
     72 H13B         0.0750     8.1040    -0.9240 hc         1 G0W       0.064033
     73 H14          1.8900     9.4660    -1.3140 ha         1 G0W       0.189000
     74 H18          6.2020     9.7690     0.4200 h1         1 G0W       0.081200
     75 H18A         6.2780     8.5250     1.6750 h1         1 G0W       0.081200
     76 H19          4.9650    11.2520     1.9640 hc         1 G0W       0.059700
     77 H19A         5.0420    10.0080     3.2200 hc         1 G0W       0.059700
     78 H20          7.5120    10.1050     3.1660 hc         1 G0W       0.058200
     79 H20A         7.4350    11.3490     1.9110 hc         1 G0W       0.058200
     80 H21          6.2750    11.5880     4.7110 hc         1 G0W       0.061700
     81 H21A         6.1990    12.8320     3.4550 hc         1 G0W       0.061700
     82 H22          8.6690    12.9290     3.4010 hx         1 G0W       0.106200
     83 H22A         8.7450    11.6850     4.6560 hx         1 G0W       0.106200
     84 H24          6.2230    14.3270     4.5530 hx         1 G0W       0.112450
     85 H24A         7.2020    15.4640     5.4910 hx         1 G0W       0.112450
     86 H25          8.8440    14.7000     3.3410 hc         1 G0W       0.070700
     87 H25A         7.2410    14.9300     2.6300 hc         1 G0W       0.070700
     88 H25B         8.0050    16.2460     3.5310 hc         1 G0W       0.070700
     89 H26          6.3850    12.5560     6.1580 hx         1 G0W       0.112450
     90 H26A         7.1640    13.7560     7.1980 hx         1 G0W       0.112450
     91 H27          8.9610    11.5750     6.3700 hc         1 G0W       0.070700
     92 H27A         8.6790    12.2550     7.9790 hc         1 G0W       0.070700
     93 H27B         7.5820    11.0260     7.3340 hc         1 G0W       0.070700
     94 H28          9.9250    13.2050     6.1020 hx         1 G0W       0.131200
     95 H28A         9.8590    14.4340     4.8300 hx         1 G0W       0.131200
     96 H30          7.0620    15.0060     6.7500 ha         1 G0W       0.159000
     97 H31          6.8180    16.7640     8.4620 ha         1 G0W       0.164000
     98 H32          8.8200    17.8460     9.4120 ha         1 G0W       0.177000
     99 H33         11.0660    17.1660     8.6540 ha         1 G0W       0.192000
    100 H40          1.8000    -1.1390     3.1300 hx         1 G0W       0.131700
    101 H40A         0.3580    -1.0520     2.1090 hx         1 G0W       0.131700
    102 H42          2.9910    -1.4410    -0.0820 ha         1 G0W       0.160000
    103 H43          3.6450    -3.5440    -1.1910 ha         1 G0W       0.165000
    104 H44          2.8590    -5.7040    -0.3000 ha         1 G0W       0.178000
    105 H45          1.4240    -5.7620     1.7050 ha         1 G0W       0.193000
@<TRIPOS>BOND
     1     1     2 1
     2     2     3 1
     3     3     4 1
     4     3     6 1
     5     3    40 1
     6     4     5 1
     7     6     7 1
     8     7     8 1
     9     8     9 1
    10     9    10 1
    11    10    11 1
    12    11    12 1
    13    11    38 1
    14    12    13 1
    15    12    14 2
    16    14    15 1
    17    15    16 2
    18    15    17 1
    19    17    18 1
    20    17    38 1
    21    18    19 1
    22    19    20 1
    23    20    21 1
    24    21    22 1
    25    22    23 1
    26    23    24 1
    27    23    26 1
    28    23    28 1
    29    24    25 1
    30    26    27 1
    31    28    29 1
    32    29    30 ar
    33    29    34 ar
    34    30    31 ar
    35    31    32 ar
    36    32    33 ar
    37    33    34 ar
    38    34    35 1
    39    35    36 1
    40    35    37 1
    41    38    39 2
    42    40    41 1
    43    41    42 ar
    44    41    46 ar
    45    42    43 ar
    46    43    44 ar
    47    44    45 ar
    48    45    46 ar
    49    46    47 1
    50    47    48 1
    51    47    49 1
    52     1    50 1
    53     1    51 1
    54     1    52 1
    55     2    53 1
    56     2    54 1
    57     4    55 1
    58     4    56 1
    59     5    57 1
    60     5    58 1
    61     5    59 1
    62     6    60 1
    63     6    61 1
    64     7    62 1
    65     7    63 1
    66     8    64 1
    67     8    65 1
    68     9    66 1
    69     9    67 1
    70    10    68 1
    71    10    69 1
    72    13    70 1
    73    13    71 1
    74    13    72 1
    75    14    73 1
    76    18    74 1
    77    18    75 1
    78    19    76 1
    79    19    77 1
    80    20    78 1
    81    20    79 1
    82    21    80 1
    83    21    81 1
    84    22    82 1
    85    22    83 1
    86    24    84 1
    87    24    85 1
    88    25    86 1
    89    25    87 1
    90    25    88 1
    91    26    89 1
    92    26    90 1
    93    27    91 1
    94    27    92 1
    95    27    93 1
    96    28    94 1
    97    28    95 1
    98    30    96 1
    99    31    97 1
   100    32    98 1
   101    33    99 1
   102    40   100 1
   103    40   101 1
   104    42   102 1
   105    43   103 1
   106    44   104 1
   107    45   105 1
@<TRIPOS>SUBSTRUCTURE
     1 G0W         1 TEMP              0 ****  ****    0 ROOT
