@<TRIPOS>MOLECULE
G10
   75    78     1     0     0
SMALL
bcc


@<TRIPOS>ATOM
      1 N1           0.0000     0.0000     0.0000 nv         1 G10      -0.568200
      2 C2           1.3970     0.0000     0.0000 ca         1 G10       0.086600
      3 C3           2.0940     0.0000     1.2010 ca         1 G10      -0.147500
      4 C4           3.4750    -0.0000     1.1970 ca         1 G10       0.004500
      5 C5           4.1640     0.0000    -0.0010 ca         1 G10      -0.171500
      6 C6           3.4740     0.0000    -1.2000 ca         1 G10       0.004500
      7 C7           2.0930    -0.0060    -1.2030 ca         1 G10      -0.147500
      8 S8           5.9260     0.0020    -0.0020 sy         1 G10       1.048200
      9 O9           6.3270     0.5450    -1.2520 o          1 G10      -0.585800
     10 O10          6.3280     0.5460     1.2470 o          1 G10      -0.585800
     11 N11          6.4180    -1.5810    -0.0030 n3         1 G10      -0.519500
     12 C12          6.6330    -2.2800    -1.2720 c3         1 G10       0.228800
     13 C13          8.1140    -2.2020    -1.6500 c3         1 G10      -0.076700
     14 C14          8.3630    -3.0370    -2.9090 c3         1 G10      -0.002600
     15 C15          8.4940    -0.7450    -1.9220 c3         1 G10      -0.002600
     16 C16          6.6350    -2.2800     1.2660 c3         1 G10       0.206800
     17 C17          5.3710    -3.0530     1.6460 c3         1 G10       0.143100
     18 O18          5.1350    -4.0830     0.6820 oh         1 G10      -0.580800
     19 C19          5.5530    -3.6820     3.0290 c3         1 G10       0.013700
     20 N20          4.3010    -4.3220     3.4440 ns         1 G10      -0.161900
     21 C21          4.0340    -4.4910     4.7540 c          1 G10       0.680100
     22 O22          4.8310    -4.1140     5.5900 o          1 G10      -0.644000
     23 O23          2.8850    -5.0790     5.1350 os         1 G10      -0.406900
     24 C24          2.6620    -5.2290     6.5620 c3         1 G10       0.181100
     25 C25          1.9000    -4.0130     7.1280 c3         1 G10       0.193400
     26 O26          0.5130    -4.3620     7.1890 os         1 G10      -0.392600
     27 C27          0.3080    -5.6920     6.6920 c3         1 G10       0.399900
     28 O28          0.0920    -5.6260     5.2700 os         1 G10      -0.399600
     29 C29          0.6100    -6.8300     4.6880 c3         1 G10       0.176400
     30 C30          1.7070    -7.3620     5.6280 c3         1 G10       0.354600
     31 C31          1.6900    -6.4000     6.8460 c3         1 G10      -0.169700
     32 C32          6.6660    -4.7290     2.9700 c3         1 G10       0.010900
     33 C33          6.2340    -6.3610     4.8180 ca         1 G10      -0.091500
     34 C34          6.4810    -6.8520     6.0870 ca         1 G10      -0.094000
     35 C35          7.4220    -6.2410     6.8930 ca         1 G10      -0.101000
     36 C36          8.1180    -5.1400     6.4310 ca         1 G10      -0.094000
     37 C37          7.8720    -4.6490     5.1620 ca         1 G10      -0.091500
     38 C38          6.9300    -5.2600     4.3560 ca         1 G10      -0.080300
     39 F39          2.9520    -7.3300     4.9910 f          1 G10      -0.211300
     40 F40          1.4030    -8.6630     6.0460 f          1 G10      -0.211300
     41 H1          -0.5000     0.8670    -0.0010 hn         1 G10       0.280300
     42 H2          -0.5000    -0.8670     0.0010 hn         1 G10       0.280300
     43 H3           1.5540    -0.0000     2.1410 ha         1 G10       0.116500
     44 H4           4.0190    -0.0000     2.1340 ha         1 G10       0.122500
     45 H5           4.0170    -0.0020    -2.1370 ha         1 G10       0.122500
     46 H6           1.5530    -0.0060    -2.1420 ha         1 G10       0.116500
     47 H7           6.0370    -1.8140    -2.0470 h1         1 G10       0.027200
     48 H8           6.3420    -3.3180    -1.1660 h1         1 G10       0.027200
     49 H9           8.7160    -2.5870    -0.8360 hc         1 G10       0.025700
     50 H10          8.0770    -4.0650    -2.7220 hc         1 G10       0.009700
     51 H11          9.4140    -2.9960    -3.1670 hc         1 G10       0.009700
     52 H12          7.7740    -2.6410    -3.7270 hc         1 G10       0.009700
     53 H13          9.4580    -0.7100    -2.4150 hc         1 G10       0.009700
     54 H14          7.7460    -0.2880    -2.5590 hc         1 G10       0.009700
     55 H15          8.5480    -0.2050    -0.9840 hc         1 G10       0.009700
     56 H16          7.4620    -2.9710     1.1600 h1         1 G10       0.048700
     57 H17          6.8630    -1.5580     2.0410 h1         1 G10       0.048700
     58 H18          4.5260    -2.3760     1.6650 h1         1 G10       0.011700
     59 H19          4.2470    -4.0240     0.3700 ho         1 G10       0.390000
     60 H20          5.8190    -2.9120     3.7430 h1         1 G10       0.069700
     61 H21          3.6320    -4.6050     2.7550 hn         1 G10       0.172500
     62 H22          3.5970    -5.3730     7.0900 h1         1 G10       0.066700
     63 H23          2.0340    -3.1600     6.4750 h1         1 G10       0.025200
     64 H24          2.2630    -3.7840     8.1220 h1         1 G10       0.025200
     65 H25         -0.4860    -6.2140     7.2120 h2         1 G10       0.047700
     66 H26          1.0340    -6.6140     3.7150 h1         1 G10       0.034700
     67 H27         -0.1820    -7.5640     4.5970 h1         1 G10       0.034700
     68 H28          1.8350    -6.8830     7.8050 hc         1 G10       0.086700
     69 H29          7.5690    -4.2750     2.5800 hc         1 G10       0.034200
     70 H30          6.3630    -5.5430     2.3230 hc         1 G10       0.034200
     71 H32          5.9350    -7.7150     6.4500 ha         1 G10       0.098500
     72 H33          7.6150    -6.6250     7.8880 ha         1 G10       0.097000
     73 H34          8.8550    -4.6610     7.0630 ha         1 G10       0.098500
     74 H35          8.4180    -3.7860     4.8000 ha         1 G10       0.102500
     75 H31          5.4970    -6.8410     4.1860 ha         1 G10       0.102500
@<TRIPOS>BOND
     1     1     2 1   
     2     1    41 1   
     3     1    42 1   
     4     2     3 ar  
     5     2     7 ar  
     6     3     4 ar  
     7     3    43 1   
     8     4     5 ar  
     9     4    44 1   
    10     5     6 ar  
    11     5     8 1   
    12     6     7 ar  
    13     6    45 1   
    14     7    46 1   
    15     8     9 2   
    16     8    10 2   
    17     8    11 1   
    18    11    12 1   
    19    11    16 1   
    20    12    13 1   
    21    12    47 1   
    22    12    48 1   
    23    13    14 1   
    24    13    15 1   
    25    13    49 1   
    26    14    50 1   
    27    14    51 1   
    28    14    52 1   
    29    15    53 1   
    30    15    54 1   
    31    15    55 1   
    32    16    17 1   
    33    16    56 1   
    34    16    57 1   
    35    17    18 1   
    36    17    19 1   
    37    17    58 1   
    38    18    59 1   
    39    19    20 1   
    40    19    32 1   
    41    19    60 1   
    42    20    21 1   
    43    20    61 1   
    44    21    22 2   
    45    21    23 1   
    46    23    24 1   
    47    24    25 1   
    48    24    31 1   
    49    24    62 1   
    50    25    26 1   
    51    25    63 1   
    52    25    64 1   
    53    26    27 1   
    54    27    28 1   
    55    27    31 1   
    56    27    65 1   
    57    28    29 1   
    58    29    30 1   
    59    29    66 1   
    60    29    67 1   
    61    30    31 1   
    62    30    39 1   
    63    30    40 1   
    64    31    68 1   
    65    32    38 1   
    66    32    69 1   
    67    32    70 1   
    68    33    34 ar  
    69    33    38 ar  
    70    33    75 1   
    71    34    35 ar  
    72    34    71 1   
    73    35    36 ar  
    74    35    72 1   
    75    36    37 ar  
    76    36    73 1   
    77    37    38 ar  
    78    37    74 1   
@<TRIPOS>SUBSTRUCTURE
     1 G10         1 TEMP              0 ****  ****    0 ROOT
