@<TRIPOS>MOLECULE
molecule
   75    78     1     0     0
SMALL
bcc


@<TRIPOS>ATOM
      1 N1           0.0000     0.0000     0.0000 nv         1 G10      -0.997200
      2 C2           1.3970     0.0000     0.0000 ca         1 G10       0.220600
      3 C3           2.0940     0.0000     1.2010 ca         1 G10      -0.169000
      4 C4           3.4750    -0.0000     1.1970 ca         1 G10      -0.029500
      5 C5           4.1640     0.0000    -0.0010 ca         1 G10      -0.329500
      6 C6           3.4740     0.0000    -1.2000 ca         1 G10      -0.029500
      7 C7           2.0930    -0.0060    -1.2030 ca         1 G10      -0.169000
      8 S8           5.9260     0.0020    -0.0020 sy         1 G10       1.421200
      9 O9           6.3270     0.5450    -1.2520 o          1 G10      -0.634800
     10 O10          6.3280     0.5460     1.2470 o          1 G10      -0.634800
     11 N11          6.4180    -1.5810    -0.0030 n3         1 G10      -0.811500
     12 C12          6.6330    -2.2800    -1.2720 c3         1 G10       0.237800
     13 C13          8.1140    -2.2020    -1.6500 c3         1 G10      -0.096700
     14 C14          8.3630    -3.0370    -2.9090 c3         1 G10      -0.088100
     15 C15          8.4940    -0.7450    -1.9220 c3         1 G10      -0.088100
     16 C16          6.6350    -2.2800     1.2660 c3         1 G10       0.224800
     17 C17          5.3710    -3.0530     1.6460 c3         1 G10       0.104100
     18 O18          5.1350    -4.0830     0.6820 oh         1 G10      -0.600800
     19 C19          5.5530    -3.6820     3.0290 c3         1 G10       0.125700
     20 N20          4.3010    -4.3220     3.4440 ns         1 G10      -0.565900
     21 C21          4.0340    -4.4910     4.7540 c          1 G10       0.752100
     22 O22          4.8310    -4.1140     5.5900 o          1 G10      -0.597000
     23 O23          2.8850    -5.0790     5.1350 os         1 G10      -0.424900
     24 C24          2.6620    -5.2290     6.5620 c3         1 G10       0.149100
     25 C25          1.9000    -4.0130     7.1280 c3         1 G10       0.115400
     26 O26          0.5130    -4.3620     7.1890 os         1 G10      -0.393600
     27 C27          0.3080    -5.6920     6.6920 c3         1 G10       0.333900
     28 O28          0.0920    -5.6260     5.2700 os         1 G10      -0.405600
     29 C29          0.6100    -6.8300     4.6880 c3         1 G10       0.104400
     30 C30          1.7070    -7.3620     5.6280 c3         1 G10       0.380600
     31 C31          1.6900    -6.4000     6.8460 c3         1 G10      -0.181700
     32 C32          6.6660    -4.7290     2.9700 c3         1 G10      -0.047100
     33 C33          6.2340    -6.3610     4.8180 ca         1 G10      -0.115500
     34 C34          6.4810    -6.8520     6.0870 ca         1 G10      -0.122500
     35 C35          7.4220    -6.2410     6.8930 ca         1 G10      -0.128000
     36 C36          8.1180    -5.1400     6.4310 ca         1 G10      -0.122500
     37 C37          7.8720    -4.6490     5.1620 ca         1 G10      -0.115500
     38 C38          6.9300    -5.2600     4.3560 ca         1 G10      -0.073300
     39 F39          2.9520    -7.3300     4.9910 f          1 G10      -0.222800
     40 F40          1.4030    -8.6630     6.0460 f          1 G10      -0.222800
     41 H1          -0.5000     0.8670    -0.0010 hn         1 G10       0.435300
     42 H2          -0.5000    -0.8670     0.0010 hn         1 G10       0.435300
     43 H3           1.5540    -0.0000     2.1410 ha         1 G10       0.144000
     44 H4           4.0190    -0.0000     2.1340 ha         1 G10       0.150000
     45 H5           4.0170    -0.0020    -2.1370 ha         1 G10       0.150000
     46 H6           1.5530    -0.0060    -2.1420 ha         1 G10       0.144000
     47 H7           6.0370    -1.8140    -2.0470 h1         1 G10       0.059200
     48 H8           6.3420    -3.3180    -1.1660 h1         1 G10       0.059200
     49 H9           8.7160    -2.5870    -0.8360 hc         1 G10       0.051700
     50 H10          8.0770    -4.0650    -2.7220 hc         1 G10       0.039367
     51 H11          9.4140    -2.9960    -3.1670 hc         1 G10       0.039367
     52 H12          7.7740    -2.6410    -3.7270 hc         1 G10       0.039367
     53 H13          9.4580    -0.7100    -2.4150 hc         1 G10       0.039367
     54 H14          7.7460    -0.2880    -2.5590 hc         1 G10       0.039367
     55 H15          8.5480    -0.2050    -0.9840 hc         1 G10       0.039367
     56 H16          7.4620    -2.9710     1.1600 h1         1 G10       0.080200
     57 H17          6.8630    -1.5580     2.0410 h1         1 G10       0.080200
     58 H18          4.5260    -2.3760     1.6650 h1         1 G10       0.044700
     59 H19          4.2470    -4.0240     0.3700 ho         1 G10       0.404000
     60 H20          5.8190    -2.9120     3.7430 h1         1 G10       0.090700
     61 H21          3.6320    -4.6050     2.7550 hn         1 G10       0.321500
     62 H22          3.5970    -5.3730     7.0900 h1         1 G10       0.102700
     63 H23          2.0340    -3.1600     6.4750 h1         1 G10       0.069200
     64 H24          2.2630    -3.7840     8.1220 h1         1 G10       0.069200
     65 H25         -0.4860    -6.2140     7.2120 h2         1 G10       0.102700
     66 H26          1.0340    -6.6140     3.7150 h1         1 G10       0.074700
     67 H27         -0.1820    -7.5640     4.5970 h1         1 G10       0.074700
     68 H28          1.8350    -6.8830     7.8050 hc         1 G10       0.117700
     69 H29          7.5690    -4.2750     2.5800 hc         1 G10       0.062200
     70 H30          6.3630    -5.5430     2.3230 hc         1 G10       0.062200
     71 H32          5.9350    -7.7150     6.4500 ha         1 G10       0.125000
     72 H33          7.6150    -6.6250     7.8880 ha         1 G10       0.123000
     73 H34          8.8550    -4.6610     7.0630 ha         1 G10       0.125000
     74 H35          8.4180    -3.7860     4.8000 ha         1 G10       0.127000
     75 H31          5.4970    -6.8410     4.1860 ha         1 G10       0.127000
@<TRIPOS>BOND
     1    35    36 ar
     2    35    34 ar
     3    36    37 ar
     4    34    33 ar
     5     1     2 1
     6    37    38 ar
     7     3     2 ar
     8     3     4 ar
     9     2     7 ar
    10     4     5 ar
    11    33    38 ar
    12    38    32 1
    13     9     8 2
    14     7     6 ar
    15     5     6 ar
    16     5     8 1
    17    32    19 1
    18    40    30 1
    19     8    10 2
    20     8    11 1
    21    39    30 1
    22    30    29 1
    23    30    31 1
    24    19    20 1
    25    19    17 1
    26    29    28 1
    27    16    11 1
    28    16    17 1
    29    11    12 1
    30    20    21 1
    31    22    21 2
    32    17    18 1
    33    21    23 1
    34    31    27 1
    35    31    24 1
    36    28    27 1
    37    12    13 1
    38    23    24 1
    39    27    26 1
    40    24    25 1
    41    14    13 1
    42    13    15 1
    43    26    25 1
    44     1    41 1
    45     1    42 1
    46     3    43 1
    47     4    44 1
    48     6    45 1
    49     7    46 1
    50    12    47 1
    51    12    48 1
    52    13    49 1
    53    14    50 1
    54    14    51 1
    55    14    52 1
    56    15    53 1
    57    15    54 1
    58    15    55 1
    59    16    56 1
    60    16    57 1
    61    17    58 1
    62    18    59 1
    63    19    60 1
    64    20    61 1
    65    24    62 1
    66    25    63 1
    67    25    64 1
    68    27    65 1
    69    29    66 1
    70    29    67 1
    71    31    68 1
    72    32    69 1
    73    32    70 1
    74    33    75 1
    75    34    71 1
    76    35    72 1
    77    36    73 1
    78    37    74 1
@<TRIPOS>SUBSTRUCTURE
     1 G10         1 TEMP              0 ****  ****    0 ROOT
