@<TRIPOS>MOLECULE
molecule
   49    52     1     0     0
SMALL
bcc


@<TRIPOS>ATOM
      1 C1           0.0000     0.0000     0.0000 cp         1 G11      -0.164500
      2 C2          -0.7430     0.0000    -1.2820 cp         1 G11       0.500800
      3 C3           1.3920     0.0000     0.0000 ca         1 G11      -0.044000
      4 C4          -0.6950     0.0060     1.2110 ca         1 G11      -0.018300
      5 C5          -0.3830     0.9000    -2.2870 ca         1 G11      -0.246300
      6 N6          -1.7390    -0.8580    -1.4630 nb         1 G11      -0.693000
      7 C7           2.0830     0.0000     1.2100 ca         1 G11      -0.157600
      8 C8          -0.0050     0.0120     2.4070 ca         1 G11      -0.144000
      9 C9          -2.2020     0.0060     1.2110 c3         1 G11      -0.050800
     10 C10         -2.4260    -0.8960    -2.5840 ca         1 G11       0.441200
     11 C11         -1.0790     0.8930    -3.4790 ca         1 G11      -0.033000
     12 C12          3.5620     0.0000     1.2190 c          1 G11       0.679700
     13 C13          1.3750    -0.0010     2.4140 ca         1 G11      -0.092000
     14 C14         -2.1270    -0.0240    -3.6320 ca         1 G11      -0.272900
     15 N15          4.2290    -0.0000     2.3900 ns         1 G11      -0.550900
     16 O16          4.1760     0.0010     0.1690 o          1 G11      -0.607100
     17 C17         -2.9030    -0.0710    -4.8890 c          1 G11       0.674700
     18 C18          5.6940     0.0000     2.3990 cx         1 G11       0.060700
     19 N19         -3.9070    -0.9600    -5.0290 ns         1 G11      -0.580900
     20 O20         -2.6360     0.6920    -5.7970 o          1 G11      -0.606100
     21 C21          6.3940     0.9360     3.3860 cx         1 G11      -0.157900
     22 C22          6.3920    -0.5730     3.6330 cx         1 G11      -0.157900
     23 C23         -4.6750    -1.0070    -6.2750 c3         1 G11       0.150000
     24 C24         -5.7460    -2.0950    -6.1730 cx         1 G11      -0.166700
     25 C25         -5.6440    -3.2780    -7.1370 cx         1 G11      -0.129900
     26 C26         -6.7340    -2.2240    -7.3340 cx         1 G11      -0.129900
     27 H3           1.9340    -0.0990    -0.9330 ha         1 G11       0.163000
     28 H5           0.4330     1.5960    -2.1320 ha         1 G11       0.154000
     29 H8          -0.5490     0.0140     3.3430 ha         1 G11       0.137000
     30 H9          -2.5630    -0.9730     0.9210 hc         1 G11       0.052033
     31 H9A         -2.5630     0.7470     0.5090 hc         1 G11       0.052033
     32 H9B         -2.5620     0.2440     2.2040 hc         1 G11       0.052033
     33 H10         -3.2330    -1.6100    -2.6940 h4         1 G11       0.018100
     34 H11         -0.8230     1.5810    -4.2750 ha         1 G11       0.167000
     35 H13          1.9110     0.0010     3.3560 ha         1 G11       0.124000
     36 HN15         3.7230    -0.0310     3.2540 hn         1 G11       0.317500
     37 H18          6.2230    -0.1530     1.4660 h1         1 G11       0.125700
     38 HN19        -4.1430    -1.5710    -4.2720 hn         1 G11       0.314500
     39 H21          5.7390     1.5150     4.0260 hc         1 G11       0.077700
     40 H21A         7.3350     1.3540     3.0480 hc         1 G11       0.077700
     41 H22          5.7360    -0.9170     4.4230 hc         1 G11       0.077700
     42 H22A         7.3320    -1.0780     3.4460 hc         1 G11       0.077700
     43 H23         -5.1500    -0.0470    -6.4430 h1         1 G11       0.058200
     44 H23A        -4.0110    -1.2300    -7.1010 h1         1 G11       0.058200
     45 H24         -6.1550    -2.3360    -5.2000 hc         1 G11       0.081700
     46 H25         -4.8220    -3.2380    -7.8420 hc         1 G11       0.077450
     47 H25A        -5.9800    -4.2310    -6.7460 hc         1 G11       0.077450
     48 H26         -7.7360    -2.5320    -7.0620 hc         1 G11       0.077450
     49 H26A        -6.5780    -1.5390    -8.1580 hc         1 G11       0.077450
@<TRIPOS>BOND
     1     4     1 ar
     2     2     1 1
     3     1     3 ar
     4     6     2 ar
     5     2     5 ar
     6     3     7 ar
     7     3    27 1
     8     9     4 1
     9     4     8 ar
    10    11     5 ar
    11     5    28 1
    12    10     6 ar
    13    13     7 ar
    14     7    12 1
    15     8    13 ar
    16     8    29 1
    17     9    30 1
    18     9    31 1
    19     9    32 1
    20    10    14 ar
    21    10    33 1
    22    14    11 ar
    23    11    34 1
    24    12    15 1
    25    12    16 2
    26    13    35 1
    27    17    14 1
    28    15    18 1
    29    15    36 1
    30    19    17 1
    31    17    20 2
    32    18    22 1
    33    18    21 1
    34    18    37 1
    35    23    19 1
    36    19    38 1
    37    22    21 1
    38    21    39 1
    39    21    40 1
    40    22    41 1
    41    22    42 1
    42    23    24 1
    43    23    43 1
    44    23    44 1
    45    24    26 1
    46    24    25 1
    47    24    45 1
    48    26    25 1
    49    25    46 1
    50    25    47 1
    51    26    48 1
    52    26    49 1
@<TRIPOS>SUBSTRUCTURE
     1 G11         1 TEMP              0 ****  ****    0 ROOT
