@<TRIPOS>MOLECULE
molecule
   21    22     1     0     0
SMALL
bcc


@<TRIPOS>ATOM
      1 Br2          0.0000     0.0000     0.0000 br         1 G12      -0.015700
      2 C9           1.8910     0.0000     0.0000 cc         1 G12      -0.193500
      3 C8           2.5980     0.0000     1.2210 c          1 G12       0.746800
      4 O15          1.9760    -0.0000     2.2680 o          1 G12      -0.546500
      5 O7           3.9400    -0.0010     1.2580 os         1 G12      -0.284200
      6 C10          2.5730    -0.0050    -1.1760 cd         1 G12       0.057600
      7 C13          1.8410    -0.0110    -2.4940 c3         1 G12      -0.076900
      8 C5           4.0360    -0.0060    -1.1280 ca         1 G12      -0.164800
      9 C6           4.6760    -0.0020     0.1260 ca         1 G12       0.202100
     10 C4           6.0630    -0.0030     0.1820 ca         1 G12      -0.076900
     11 Br1          6.9450    -0.0050     1.8540 br         1 G12      -0.036100
     12 C1           4.7950    -0.0120    -2.3030 ca         1 G12      -0.046000
     13 C2           6.1590    -0.0120    -2.2300 ca         1 G12      -0.181000
     14 C3           6.7990    -0.0050    -0.9930 ca         1 G12       0.182100
     15 O11          8.1560    -0.0060    -0.9370 oh         1 G12      -0.505100
     16 H131         2.1150     0.8700    -3.0620 hc         1 G12       0.066367
     17 H132         0.7730    -0.0080    -2.3140 hc         1 G12       0.066367
     18 H133         2.1110    -0.8990    -3.0530 hc         1 G12       0.066367
     19 H1           4.3030    -0.0180    -3.2680 ha         1 G12       0.148000
     20 H2           6.7470    -0.0130    -3.1400 ha         1 G12       0.155000
     21 HO11         8.4720     0.8820    -0.9570 ho         1 G12       0.435000
@<TRIPOS>BOND
     1     1     2 1
     2     2     6 2
     3     2     3 1
     4     3     5 1
     5     3     4 2
     6     5     9 1
     7     6     8 1
     8     6     7 1
     9     7    16 1
    10     7    17 1
    11     7    18 1
    12     8    12 ar
    13     8     9 ar
    14     9    10 ar
    15    10    14 ar
    16    10    11 1
    17    12    13 ar
    18    12    19 1
    19    13    14 ar
    20    13    20 1
    21    14    15 1
    22    15    21 1
@<TRIPOS>SUBSTRUCTURE
     1 G12         1 TEMP              0 ****  ****    0 ROOT
