@<TRIPOS>MOLECULE
G12
   21    22     1     0     0
SMALL
bcc


@<TRIPOS>ATOM
      1 BR2        -0.0120   -0.0600    0.1080 br        1 G12     -0.015700
      2 C9          1.8520   -0.0090   -0.0060 cc        1 G12     -0.192500
      3 C8          2.5760    0.0430    1.2590 c         1 G12      0.735800
      4 O15         2.1700    0.0590    2.4180 o         1 G12     -0.532500
      5 O7          3.9740    0.0830    1.2530 os        1 G12     -0.313200
      6 C10         2.5310   -0.0170   -1.1880 cd        1 G12      0.093600
      7 C13         1.8600   -0.0680   -2.5090 c3        1 G12     -0.088900
      8 C5          3.9790    0.0260   -1.1730 ca        1 G12     -0.197800
      9 C6          4.6550    0.0750    0.0630 ca        1 G12      0.229100
     10 C4          6.0680    0.1170    0.1420 ca        1 G12     -0.153900
     11 BR1         6.9700    0.1820    1.7830 br        1 G12     -0.041100
     12 C1          4.7430    0.0210   -2.3570 ca        1 G12     -0.027000
     13 C2          6.1200    0.0610   -2.3140 ca        1 G12     -0.189000
     14 C3          6.7840    0.1100   -1.0660 ca        1 G12      0.209100
     15 O11         8.1470    0.1470   -1.1500 oh        1 G12     -0.479100
     16 H131        0.7460   -0.0980   -2.4170 hc        1 G12      0.068367
     17 H132        2.1350    0.8370   -3.1090 hc        1 G12      0.068367
     18 H133        2.1890   -0.9820   -3.0660 hc        1 G12      0.068367
     19 H1          4.2350   -0.0170   -3.3340 ha        1 G12      0.148000
     20 H2          6.7260    0.0580   -3.2330 ha        1 G12      0.165000
     21 HO11        8.5210    0.1790   -0.2520 ho        1 G12      0.442000
@<TRIPOS>BOND
     1    1    2 1   
     2    2    3 1   
     3    2    6 2   
     4    3    4 2   
     5    3    5 1   
     6    5    9 1   
     7    6    7 1   
     8    6    8 1   
     9    7   16 1   
    10    7   17 1   
    11    7   18 1   
    12    8    9 ar  
    13    8   12 ar  
    14    9   10 ar  
    15   10   11 1   
    16   10   14 ar  
    17   12   13 ar  
    18   12   19 1   
    19   13   14 ar  
    20   13   20 1   
    21   14   15 1   
    22   15   21 1   
@<TRIPOS>SUBSTRUCTURE
     1 G12         1 TEMP              0 ****  ****    0 ROOT
