@<TRIPOS>MOLECULE
G13
   73    76     1     0     0
SMALL
bcc


@<TRIPOS>ATOM
      1 O25          0.0000     0.0000     0.0000 o          1 G13      -0.640100
      2 C24          1.2190     0.0000     0.0000 c          1 G13       0.607700
      3 C26          1.9920     0.0000     1.3000 ca         1 G13      -0.136600
      4 C27          2.9440    -1.0010     1.4680 ca         1 G13      -0.081000
      5 C28          3.7170    -1.0720     2.6270 ca         1 G13      -0.111000
      6 C29          3.5360    -0.1250     3.6310 ca         1 G13      -0.073000
      7 C30          2.5890     0.8850     3.4650 ca         1 G13      -0.042000
      8 C32          2.4240     1.8250     4.4820 ca         1 G13      -0.096000
      9 C31          1.8160     0.9580     2.3050 ca         1 G13       0.008000
     10 C35          0.8750     1.9900     2.1800 ca         1 G13      -0.088000
     11 C34          0.7140     2.9270     3.1980 ca         1 G13      -0.097000
     12 C33          1.4870     2.8460     4.3520 ca         1 G13      -0.098000
     13 N23          1.9340     0.0020    -1.1280 ns         1 G13      -0.170900
     14 C20          1.3950    -0.2470    -2.4520 c3         1 G13       0.014700
     15 C16          2.4370    -0.9690    -3.3070 c3         1 G13       0.017700
     16 C17          3.0070     0.0370    -4.2870 c3         1 G13      -0.059700
     17 C22          2.1290     1.2830    -4.2320 c3         1 G13      -0.021400
     18 C21          1.0890     1.0750    -3.1350 c3         1 G13      -0.044400
     19 C18          2.9840    -0.6270    -5.6480 c3         1 G13      -0.030400
     20 C19          1.9010    -1.6860    -5.5550 c3         1 G13       0.046000
     21 N15          1.8330    -2.0240    -4.1340 n          1 G13      -0.127800
     22 C13          1.3550    -3.1350    -3.5570 c          1 G13       0.590100
     23 O14          1.4910    -3.3280    -2.3560 o          1 G13      -0.658100
     24 C8           0.6540    -4.1830    -4.3840 c3         1 G13      -0.050300
     25 C9          -0.8640    -3.9640    -4.3930 c3         1 G13      -0.071000
     26 C12         -1.1930    -2.6380    -5.0670 c3         1 G13      -0.007767
     27 C11         -1.4330    -3.9360    -2.9780 c3         1 G13      -0.007767
     28 C10         -1.5600    -5.0600    -5.1940 c3         1 G13      -0.007767
     29 N7           0.9860    -5.5030    -3.8640 ns         1 G13      -0.167900
     30 C5           1.2620    -6.5630    -4.6220 c          1 G13       0.571100
     31 O6           1.3040    -6.5220    -5.8410 o          1 G13      -0.636100
     32 C3           1.4970    -7.8550    -3.8870 c3         1 G13       0.061500
     33 C4           2.9210    -7.9220    -3.3420 c3         1 G13       0.010900
     34 N2           1.2260    -8.9990    -4.7340 n7         1 G13      -0.564200
     35 C1          -0.1370    -9.2790    -5.1530 c3         1 G13       0.187100
     36 H27          3.0860    -1.7380     0.6880 ha         1 G13       0.111000
     37 H28          4.4550    -1.8570     2.7440 ha         1 G13       0.107000
     38 H29          4.1310    -0.1700     4.5350 ha         1 G13       0.106000
     39 H32          3.0280     1.7590     5.3790 ha         1 G13       0.105000
     40 H35          0.2690     2.0600     1.2840 ha         1 G13       0.125000
     41 H34         -0.0160     3.7200     3.0920 ha         1 G13       0.104000
     42 H33          1.3630     3.5750     5.1430 ha         1 G13       0.103000
     43 HN23         2.9140     0.1920    -1.0550 hn         1 G13       0.171500
     44 H20          0.4940    -0.8450    -2.3850 h1         1 G13       0.072700
     45 H16          3.2230    -1.3790    -2.6840 h1         1 G13       0.050700
     46 H17          4.0250     0.2870    -4.0130 hc         1 G13       0.037700
     47 H22          2.7370     2.1490    -4.0000 hc         1 G13       0.020700
     48 H22A         1.6310     1.4220    -5.1850 hc         1 G13       0.020700
     49 H21          1.1510     1.8810    -2.4140 hc         1 G13       0.028700
     50 H21A         0.0980     1.0410    -3.5710 hc         1 G13       0.028700
     51 H18          3.9420    -1.0880    -5.8560 hc         1 G13       0.030700
     52 H18A         2.7350     0.0980    -6.4140 hc         1 G13       0.030700
     53 H19          0.9530    -1.2840    -5.8920 h1         1 G13       0.030700
     54 H19A         2.1770    -2.5570    -6.1360 h1         1 G13       0.030700
     55 H8           1.0160    -4.1150    -5.4020 h1         1 G13       0.064700
     56 H12         -0.8860    -1.8200    -4.4260 hc         1 G13       0.013367
     57 H12A        -0.6680    -2.5730    -6.0130 hc         1 G13       0.013367
     58 H12B        -2.2610    -2.5770    -5.2430 hc         1 G13       0.013367
     59 H11         -0.9880    -4.7330    -2.3950 hc         1 G13       0.013367
     60 H11A        -1.2080    -2.9820    -2.5170 hc         1 G13       0.013367
     61 H11B        -2.5070    -4.0730    -3.0180 hc         1 G13       0.013367
     62 H10         -2.5420    -4.7180    -5.4970 hc         1 G13       0.013367
     63 H10A        -0.9720    -5.2930    -6.0740 hc         1 G13       0.013367
     64 H10B        -1.6610    -5.9470    -4.5810 hc         1 G13       0.013367
     65 HN7          1.0100    -5.6210    -2.8710 hn         1 G13       0.193500
     66 H3           0.8150    -7.8910    -3.0460 h1         1 G13      -0.001300
     67 H4           3.6250    -7.7740    -4.1520 hc         1 G13       0.012033
     68 H4A          3.0900    -8.8910    -2.8900 hc         1 G13       0.012033
     69 H4B          3.0600    -7.1470    -2.5970 hc         1 G13       0.012033
     70 HN2          1.6240    -9.8200    -4.3230 hn         1 G13       0.248800
     71 H1          -0.8260    -8.9500    -4.3840 h1         1 G13      -0.000633
     72 H1A         -0.3470    -8.7510    -6.0760 h1         1 G13      -0.000633
     73 H1B         -0.2550   -10.3440    -5.3120 h1         1 G13      -0.000633
@<TRIPOS>BOND
     1     1     2 2   
     2     2     3 1   
     3     2    13 1   
     4     3     4 ar  
     5     3     9 ar  
     6     4     5 ar  
     7     4    36 1   
     8     5     6 ar  
     9     5    37 1   
    10     6     7 ar  
    11     6    38 1   
    12     7     8 ar  
    13     7     9 ar  
    14     8    12 ar  
    15     8    39 1   
    16     9    10 ar  
    17    10    11 ar  
    18    10    40 1   
    19    11    12 ar  
    20    11    41 1   
    21    12    42 1   
    22    13    14 1   
    23    13    43 1   
    24    14    15 1   
    25    14    18 1   
    26    14    44 1   
    27    15    16 1   
    28    15    21 1   
    29    15    45 1   
    30    16    17 1   
    31    16    19 1   
    32    16    46 1   
    33    17    18 1   
    34    17    47 1   
    35    17    48 1   
    36    18    49 1   
    37    18    50 1   
    38    19    20 1   
    39    19    51 1   
    40    19    52 1   
    41    20    21 1   
    42    20    53 1   
    43    20    54 1   
    44    21    22 1   
    45    22    23 2   
    46    22    24 1   
    47    24    25 1   
    48    24    29 1   
    49    24    55 1   
    50    25    26 1   
    51    25    27 1   
    52    25    28 1   
    53    26    56 1   
    54    26    57 1   
    55    26    58 1   
    56    27    59 1   
    57    27    60 1   
    58    27    61 1   
    59    28    62 1   
    60    28    63 1   
    61    28    64 1   
    62    29    30 1   
    63    29    65 1   
    64    30    31 2   
    65    30    32 1   
    66    32    33 1   
    67    32    34 1   
    68    32    66 1   
    69    33    67 1   
    70    33    68 1   
    71    33    69 1   
    72    34    35 1   
    73    34    70 1   
    74    35    71 1   
    75    35    72 1   
    76    35    73 1   
@<TRIPOS>SUBSTRUCTURE
     1 G13         1 TEMP              0 ****  ****    0 ROOT
