@<TRIPOS>MOLECULE
molecule
   21    22     1     0     0
SMALL
bcc


@<TRIPOS>ATOM
      1 O14          0.0000     0.0000     0.0000 o          1 G14      -0.831800
      2 C12          1.3480     0.0000     0.0000 c          1 G14       0.806100
      3 O13          1.9560     0.0000     1.0530 o          1 G14      -0.831800
      4 C10          2.0840    -0.0010    -1.2750 cc         1 G14       0.317800
      5 C9           3.4430    -0.0010    -1.4200 cd         1 G14      -0.260600
      6 N8           3.6990    -0.0030    -2.7490 na         1 G14      -0.304900
      7 C7           2.4980    -0.0030    -3.4000 cd         1 G14       0.376000
      8 N11          1.5370    -0.0060    -2.5090 nc         1 G14      -0.628000
      9 C6           2.3130    -0.0050    -4.8670 ca         1 G14      -0.067500
     10 C1           3.4220    -0.0110    -5.7140 ca         1 G14      -0.122500
     11 C2           3.2430    -0.0130    -7.0820 ca         1 G14      -0.133500
     12 C3           1.9660    -0.0070    -7.6150 ca         1 G14      -0.152000
     13 C4           0.8620    -0.0000    -6.7820 ca         1 G14      -0.133500
     14 C5           1.0280    -0.0040    -5.4120 ca         1 G14      -0.122500
     15 H9           4.1760    -0.0010    -0.6220 h4         1 G14       0.180000
     16 H1           4.4220    -0.0150    -5.2980 ha         1 G14       0.142000
     17 H2           4.1040    -0.0180    -7.7400 ha         1 G14       0.119000
     18 H3           1.8310    -0.0070    -8.6900 ha         1 G14       0.114000
     19 H4          -0.1350     0.0020    -7.2050 ha         1 G14       0.119000
     20 H5           0.1630     0.0020    -4.7600 ha         1 G14       0.142000
     21 HN8          4.6040    -0.0020    -3.1770 hn         1 G14       0.272700
@<TRIPOS>BOND
     1     1     2 1
     2     3     2 1
     3     2     4 1
     4     4     5 2
     5     4     8 1
     6     5     6 1
     7     5    15 1
     8     6     7 1
     9     8     7 2
    10     7     9 1
    11     9    14 ar
    12     9    10 ar
    13    10    11 ar
    14    10    16 1
    15    11    12 ar
    16    11    17 1
    17    13    12 ar
    18    12    18 1
    19    14    13 ar
    20    13    19 1
    21    14    20 1
    22     6    21 1
@<TRIPOS>SUBSTRUCTURE
     1 G14         1 TEMP              0 ****  ****    0 ROOT
