@<TRIPOS>MOLECULE
G14
   21    22     1     0     0
SMALL
bcc


@<TRIPOS>ATOM
      1 O14         0.0810   -0.2580    0.1560 o         1 G14     -0.822300
      2 C12         1.3300   -0.1430    0.0970 c         1 G14      0.834100
      3 O13         2.0990   -0.0890    1.1010 o         1 G14     -0.822300
      4 C10         2.0160   -0.0490   -1.2560 cc        1 G14      0.285800
      5 C9          3.4140    0.1560   -1.3970 cd        1 G14     -0.239600
      6 N8          3.6820    0.1850   -2.7580 na        1 G14     -0.322900
      7 C7          2.4470    0.0070   -3.4210 cd        1 G14      0.356000
      8 N11         1.4340   -0.1380   -2.5110 nc        1 G14     -0.613000
      9 C6          2.3080   -0.0120   -4.8700 ca        1 G14     -0.065500
     10 C1          3.4180   -0.1660   -5.7150 ca        1 G14     -0.129000
     11 C2          3.2560   -0.1730   -7.0990 ca        1 G14     -0.135000
     12 C3          1.9880   -0.0340   -7.6600 ca        1 G14     -0.156000
     13 C4          0.8780    0.1100   -6.8270 ca        1 G14     -0.135000
     14 C5          1.0310    0.1220   -5.4440 ca        1 G14     -0.129000
     15 H9          4.1700    0.2690   -0.6240 h4        1 G14      0.183000
     16 H1          4.4280   -0.2950   -5.3010 ha        1 G14      0.142000
     17 H2          4.1340   -0.2930   -7.7490 ha        1 G14      0.118500
     18 H3          1.8630   -0.0410   -8.7520 ha        1 G14      0.116000
     19 H4         -0.1250    0.2140   -7.2640 ha        1 G14      0.118500
     20 H5          0.1500    0.2330   -4.7910 ha        1 G14      0.142000
     21 HN8         4.5510    0.3400   -3.1880 hn        1 G14      0.275700
@<TRIPOS>BOND
     1    1    2 1   
     2    2    3 1   
     3    2    4 1   
     4    4    5 2   
     5    4    8 1   
     6    5    6 1   
     7    5   15 1   
     8    6    7 1   
     9    6   21 1   
    10    7    8 2   
    11    7    9 1   
    12    9   10 ar  
    13    9   14 ar  
    14   10   11 ar  
    15   10   16 1   
    16   11   12 ar  
    17   11   17 1   
    18   12   13 ar  
    19   12   18 1   
    20   13   14 ar  
    21   13   19 1   
    22   14   20 1   
@<TRIPOS>SUBSTRUCTURE
     1 G14         1 TEMP              0 ****  ****    0 ROOT
