@<TRIPOS>MOLECULE
G15
   52    55     1     0     0
SMALL
bcc


@<TRIPOS>ATOM
      1 O26          0.0000     0.0000     0.0000 o          1 G15      -0.626100
      2 C23          1.2330     0.0000     0.0000 c          1 G15       0.582100
      3 N25          2.0150     0.0040    -1.1530 n          1 G15      -0.163800
      4 C27          1.3780     0.0090    -2.4690 c3         1 G15      -0.004500
      5 C29          2.0560     1.0190    -3.3840 c3         1 G15       0.196900
      6 O31          3.4610     0.7600    -3.4510 os         1 G15      -0.394600
      7 C30          4.0680     0.8900    -2.1630 c3         1 G15       0.196900
      8 C28          3.4760    -0.1240    -1.1920 c3         1 G15      -0.004500
      9 C22          1.9730     0.0000     1.3140 c3         1 G15      -0.043300
     10 C24          1.1380    -0.6390     2.3990 c3         1 G15      -0.003100
     11 N19          2.2400     1.3980     1.5760 n          1 G15      -0.176800
     12 C21          1.1730     2.3700     1.6360 c3         1 G15       0.047000
     13 C18          1.8460     3.5950     2.2320 c3         1 G15      -0.054400
     14 C17          3.5060     1.9770     1.6400 c          1 G15       0.629500
     15 O20          4.5920     1.4270     1.5340 o          1 G15      -0.648500
     16 C16          3.3060     3.4630     1.8130 c3         1 G15       0.119500
     17 N13          3.5450     4.0800     0.4970 n7         1 G15      -0.540100
     18 S11          4.7570     5.2620     0.3150 sy         1 G15       0.897800
     19 O14          4.5440     6.3200     1.2840 o          1 G15      -0.538300
     20 O15          4.9030     5.5800    -1.0920 o          1 G15      -0.538300
     21 C7           6.2060     4.3690     0.7940 cc         1 G15       0.478900
     22 N2           6.9210     4.7790     1.8040 nd         1 G15      -0.556800
     23 N3           7.8670     3.8270     1.7830 na         1 G15       0.364600
     24 N1           6.5630     3.2760     0.1180 nc         1 G15      -0.546000
     25 C1           7.6480     2.9380     0.7780 cd         1 G15       0.337000
     26 C2           8.4760     1.8280     0.5060 cd         1 G15      -0.081600
     27 C5           9.6200     1.4480     1.1820 cc         1 G15      -0.105000
     28 C9          10.2070     0.2710     0.6330 cc         1 G15      -0.113000
     29 C10          9.4920    -0.2090    -0.4420 cd         1 G15      -0.000700
     30 S6           8.1210     0.7580    -0.7860 ss         1 G15      -0.105800
     31 Cl           9.8330    -1.5900    -1.3970 cl         1 G15       0.073600
     32 H22          2.9070    -0.5370     1.2080 h1         1 G15       0.064700
     33 H271         0.3330     0.2730    -2.3590 h1         1 G15       0.039700
     34 H272         1.4580    -0.9790    -2.9080 h1         1 G15       0.039700
     35 H281         3.7380    -1.1240    -1.5150 h1         1 G15       0.039700
     36 H282         3.8760     0.0540    -0.2010 h1         1 G15       0.039700
     37 H291         1.6310     0.9430    -4.3770 h1         1 G15       0.018450
     38 H292         1.8950     2.0170    -2.9950 h1         1 G15       0.018450
     39 H301         3.8930     1.8900    -1.7850 h1         1 G15       0.018450
     40 H302         5.1340     0.7170    -2.2520 h1         1 G15       0.018450
     41 H241         0.1450    -0.2050     2.3930 hc         1 G15       0.020033
     42 H242         1.0670    -1.7050     2.2190 hc         1 G15       0.020033
     43 H243         1.6020    -0.4650     3.3620 hc         1 G15       0.020033
     44 H211         0.3770     2.0220     2.2830 h1         1 G15       0.032200
     45 H212         0.8010     2.5870     0.6420 h1         1 G15       0.032200
     46 H181         1.4160     4.5000     1.8210 hc         1 G15       0.040200
     47 H182         1.7610     3.5840     3.3120 hc         1 G15       0.040200
     48 H16          3.9700     3.8620     2.5700 h1         1 G15       0.066700
     49 H13          2.9710     3.8300    -0.2840 hn         1 G15       0.347800
     50 H3           8.6340     3.7790     2.4240 hn         1 G15       0.149700
     51 H5          10.0250     1.9840     2.0320 ha         1 G15       0.119000
     52 H9          11.1080    -0.1920     1.0170 ha         1 G15       0.135000
@<TRIPOS>BOND
     1     1     2 2   
     2     2     3 1   
     3     2     9 1   
     4     3     4 1   
     5     3     8 1   
     6     4     5 1   
     7     4    33 1   
     8     4    34 1   
     9     5     6 1   
    10     5    37 1   
    11     5    38 1   
    12     6     7 1   
    13     7     8 1   
    14     7    39 1   
    15     7    40 1   
    16     8    35 1   
    17     8    36 1   
    18     9    10 1   
    19     9    11 1   
    20     9    32 1   
    21    10    41 1   
    22    10    42 1   
    23    10    43 1   
    24    11    12 1   
    25    11    14 1   
    26    12    13 1   
    27    12    44 1   
    28    12    45 1   
    29    13    16 1   
    30    13    46 1   
    31    13    47 1   
    32    14    15 2   
    33    14    16 1   
    34    16    17 1   
    35    16    48 1   
    36    17    18 1   
    37    17    49 1   
    38    18    19 2   
    39    18    20 2   
    40    18    21 1   
    41    21    22 2   
    42    21    24 1   
    43    22    23 1   
    44    23    25 1   
    45    23    50 1   
    46    24    25 2   
    47    25    26 1   
    48    26    27 2   
    49    26    30 1   
    50    27    28 1   
    51    27    51 1   
    52    28    29 2   
    53    28    52 1   
    54    29    30 1   
    55    29    31 1   
@<TRIPOS>SUBSTRUCTURE
     1 G15         1 TEMP              0 ****  ****    0 ROOT
