@<TRIPOS>MOLECULE
molecule
   55    59     1     0     0
SMALL
bcc


@<TRIPOS>ATOM
      1 FBF          0.0000     0.0000     0.0000 f          1 G17      -0.220967
      2 CBE          1.4000     0.0000     0.0000 c3         1 G17       0.675200
      3 FBG          1.8650     0.0000     1.3200 f          1 G17      -0.220967
      4 FBH          1.8660    -1.1430    -0.6590 f          1 G17      -0.220967
      5 CAW          1.9020     1.2300    -0.7100 ca         1 G17      -0.190300
      6 CAV          1.1560     1.7920    -1.7260 ca         1 G17      -0.020000
      7 CAX          3.1090     1.7960    -0.3390 ca         1 G17      -0.058000
      8 CAY          3.5760     2.9290    -0.9820 ca         1 G17      -0.140000
      9 CAZ          2.8390     3.5020    -1.9990 ca         1 G17      -0.079000
     10 CAU          1.6230     2.9310    -2.3820 ca         1 G17      -0.153600
     11 CAT          0.8290     3.5390    -3.4710 c          1 G17       0.675700
     12 OBA         -0.2280     3.0400    -3.8030 o          1 G17      -0.585100
     13 NAS          1.2790     4.6460    -4.0950 ns         1 G17      -0.473100
     14 CAP          0.5820     5.1600    -5.1940 ca         1 G17       0.049600
     15 CAQ          0.5510     6.5280    -5.4190 ca         1 G17      -0.148000
     16 CAO         -0.0740     4.2980    -6.0660 ca         1 G17      -0.120000
     17 CAN         -0.7610     4.8020    -7.1530 ca         1 G17      -0.110000
     18 CAM         -0.8010     6.1630    -7.3800 ca         1 G17      -0.084300
     19 CAR         -1.5530     6.7060    -8.5680 c3         1 G17      -0.046800
     20 CAL         -0.1430     7.0340    -6.5140 cp         1 G17      -0.024000
     21 CAI         -0.1810     8.4970    -6.7590 cp         1 G17      -0.067000
     22 CAH         -1.3990     9.1440    -6.8630 ca         1 G17      -0.063000
     23 CAJ          1.0200     9.2140    -6.8780 ca         1 G17      -0.080000
     24 CAK          1.0150    10.5550    -7.1020 ca         1 G17      -0.196300
     25 C4          -0.2060    11.2400    -7.2180 ca         1 G17       0.497600
     26 N3          -0.2540    12.5590    -7.4390 nb         1 G17      -0.805000
     27 C5          -1.4250    10.5250    -7.0940 ca         1 G17      -0.343600
     28 C6          -2.6340    11.2380    -7.2100 ca         1 G17       0.525200
     29 N1          -2.5800    12.5340    -7.4280 nb         1 G17      -0.786000
     30 C2          -1.4160    13.1740    -7.5420 ca         1 G17       0.949900
     31 NAG         -1.4280    14.5380    -7.7710 nu         1 G17      -0.860900
     32 CBD         -2.7030    15.2490    -7.8910 cx         1 G17       0.189500
     33 CBC         -2.7120    16.5540    -8.6900 cx         1 G17      -0.159400
     34 CBB         -2.8360    16.5900    -7.1660 cx         1 G17      -0.159400
     35 H1           0.2140     1.3450    -2.0180 ha         1 G17       0.175000
     36 H2           3.6910     1.3510     0.4590 ha         1 G17       0.151000
     37 H3           4.5200     3.3690    -0.6850 ha         1 G17       0.144000
     38 H4           3.2060     4.3880    -2.5030 ha         1 G17       0.131000
     39 H5           2.0900     5.1200    -3.7510 hn         1 G17       0.324500
     40 H6           1.0640     7.2010    -4.7430 ha         1 G17       0.133000
     41 H7          -0.0450     3.2290    -5.8930 ha         1 G17       0.161000
     42 H8          -1.2710     4.1270    -7.8300 ha         1 G17       0.138000
     43 H9          -0.9580     7.4710    -9.0530 hc         1 G17       0.045367
     44 H10         -1.7500     5.9040    -9.2690 hc         1 G17       0.045367
     45 H11         -2.4910     7.1350    -8.2370 hc         1 G17       0.045367
     46 H12         -2.3140     8.6190    -6.6150 ha         1 G17       0.141000
     47 H13          1.9650     8.6920    -6.7910 ha         1 G17       0.136000
     48 H14          1.9500    11.0940    -7.1910 ha         1 G17       0.151000
     49 H15         -3.5870    10.7310    -7.1190 h4         1 G17       0.032100
     50 H16         -0.5660    15.0370    -7.8650 hn         1 G17       0.461800
     51 H17         -3.6190    14.6740    -7.9520 h1         1 G17       0.122700
     52 H18         -3.6230    16.7600    -9.2380 hc         1 G17       0.077950
     53 H19         -1.7540    16.8640    -9.0890 hc         1 G17       0.077950
     54 H20         -3.8230    16.8180    -6.7820 hc         1 G17       0.077950
     55 H21         -1.9540    16.9230    -6.6330 hc         1 G17       0.077950
@<TRIPOS>BOND
     1     8     7 ar
     2     8     9 ar
     3     7     5 ar
     4     9    10 ar
     5     3     2 1
     6     5     6 ar
     7     5     2 1
     8    10     6 ar
     9    10    11 1
    10    13    11 1
    11    13    14 1
    12    16    14 ar
    13    16    17 ar
    14     2     4 1
    15     2     1 1
    16    11    12 2
    17    14    15 ar
    18    17    18 ar
    19    15    20 ar
    20    18    20 ar
    21    18    19 1
    22    20    21 1
    23    23    21 ar
    24    23    24 ar
    25    21    22 ar
    26    24    25 ar
    27    22    27 ar
    28    25    27 ar
    29    25    26 ar
    30    27    28 ar
    31    26    30 ar
    32    28    29 ar
    33    30    29 ar
    34    30    31 1
    35    32    31 1
    36    32    33 1
    37    32    34 1
    38    33    34 1
    39     6    35 1
    40     7    36 1
    41     8    37 1
    42     9    38 1
    43    13    39 1
    44    15    40 1
    45    16    41 1
    46    17    42 1
    47    19    43 1
    48    19    44 1
    49    19    45 1
    50    22    46 1
    51    23    47 1
    52    24    48 1
    53    28    49 1
    54    31    50 1
    55    32    51 1
    56    33    52 1
    57    33    53 1
    58    34    54 1
    59    34    55 1
@<TRIPOS>SUBSTRUCTURE
     1 G17         1 TEMP              0 ****  ****    0 ROOT
