@<TRIPOS>MOLECULE
molecule
   21    23     1     0     0
SMALL
bcc


@<TRIPOS>ATOM
      1 CAO          0.0000     0.0000     0.0000 ca         1 G18       0.040000
      2 CAN          1.4080     0.0000     0.0000 ca         1 G18      -0.154600
      3 CAH          2.1000     0.0000     1.2120 ca         1 G18      -0.055000
      4 CAD          1.3950     0.0010     2.3960 ca         1 G18      -0.151000
      5 CAF          0.0060     0.0010     2.3940 ca         1 G18      -0.095000
      6 CAL         -0.6950     0.0070     1.2080 ca         1 G18      -0.138000
      7 CAC         -2.4880     0.0010    -2.8220 cc         1 G18      -0.084100
      8 CAG         -2.1480     0.0030    -1.5460 cc         1 G18      -0.104000
      9 CAM         -0.7190    -0.0020    -1.2960 cc         1 G18      -0.146000
     10 CAJ          0.0180    -0.0090    -2.4600 cd         1 G18       0.126500
     11 NAC          1.4030    -0.0150    -2.4290 ns         1 G18      -0.405100
     12 SAK         -1.0670    -0.0100    -3.8490 ss         1 G18      -0.146800
     13 CAK          2.1090    -0.0020    -1.2890 c          1 G18       0.718100
     14 OAB          3.3270    -0.0020    -1.3230 o          1 G18      -0.635500
     15 HAL         -1.7790     0.0070     1.2140 ha         1 G18       0.136000
     16 HAG         -2.8800     0.0100    -0.7480 ha         1 G18       0.154000
     17 HAC         -3.5080     0.0040    -3.1860 h4         1 G18       0.177000
     18 HAF         -0.5310     0.0020     3.3340 ha         1 G18       0.132000
     19 HAD          1.9290    -0.0040     3.3380 ha         1 G18       0.136000
     20 HAH          3.1840     0.0000     1.2220 ha         1 G18       0.157000
     21 HAN          1.9000    -0.0290    -3.2980 hn         1 G18       0.337500
@<TRIPOS>BOND
     1     1     9 1
     2     1     6 ar
     3     1     2 ar
     4     9     8 1
     5     9    10 2
     6     8     7 2
     7     6     5 ar
     8     5     4 ar
     9     4     3 ar
    10     3     2 ar
    11     2    13 1
    12    13    14 2
    13    13    11 1
    14    11    10 1
    15     7    12 1
    16    10    12 1
    17     6    15 1
    18     8    16 1
    19     7    17 1
    20     5    18 1
    21     4    19 1
    22     3    20 1
    23    11    21 1
@<TRIPOS>SUBSTRUCTURE
     1 G18         1 TEMP              0 ****  ****    0 ROOT
