@<TRIPOS>MOLECULE
G18
   21    23     1     0     0
SMALL
bcc


@<TRIPOS>ATOM
      1 CAO          0.0000     0.0000     0.0000 ca         1 G18       0.040000
      2 CAN          1.4080     0.0000     0.0000 ca         1 G18      -0.162600
      3 CAH          2.1000     0.0000     1.2120 ca         1 G18      -0.021000
      4 CAD          1.3950     0.0010     2.3960 ca         1 G18      -0.125000
      5 CAF          0.0060     0.0010     2.3940 ca         1 G18      -0.065000
      6 CAL         -0.6950     0.0070     1.2080 ca         1 G18      -0.115000
      7 CAC         -2.4880     0.0010    -2.8220 cc         1 G18      -0.004100
      8 CAG         -2.1480     0.0030    -1.5460 cd         1 G18      -0.069000
      9 CAM         -0.7190    -0.0020    -1.2960 cd         1 G18      -0.132000
     10 CAJ          0.0180    -0.0090    -2.4600 cc         1 G18       0.000500
     11 NAC          1.4030    -0.0150    -2.4290 ns         1 G18       0.084900
     12 SAK         -1.0670    -0.0100    -3.8490 ss         1 G18      -0.260800
     13 CAK          2.1090    -0.0020    -1.2890 c          1 G18       0.612100
     14 OAB          3.3270    -0.0020    -1.3230 o          1 G18      -0.677500
     15 HAL         -1.7790     0.0070     1.2140 ha         1 G18       0.112000
     16 HAG         -2.8800     0.0100    -0.7480 ha         1 G18       0.123000
     17 HAC         -3.5080     0.0040    -3.1860 h4         1 G18       0.154000
     18 HAF         -0.5310     0.0020     3.3340 ha         1 G18       0.102000
     19 HAD          1.9290    -0.0040     3.3380 ha         1 G18       0.107000
     20 HAH          3.1840     0.0000     1.2220 ha         1 G18       0.127000
     21 HAN          1.9000    -0.0290    -3.2980 hn         1 G18       0.172500
@<TRIPOS>BOND
     1     1     2 ar  
     2     1     6 ar  
     3     1     9 1   
     4     2     3 ar  
     5     2    13 1   
     6     3     4 ar  
     7     3    20 1   
     8     4     5 ar  
     9     4    19 1   
    10     5     6 ar  
    11     5    18 1   
    12     6    15 1   
    13     7     8 2   
    14     7    12 1   
    15     7    17 1   
    16     8     9 1   
    17     8    16 1   
    18     9    10 2   
    19    10    11 1   
    20    10    12 1   
    21    11    13 1   
    22    11    21 1   
    23    13    14 2   
@<TRIPOS>SUBSTRUCTURE
     1 G18         1 TEMP              0 ****  ****    0 ROOT
