@<TRIPOS>MOLECULE
G1C
   46    48     1     0     0
SMALL
bcc


@<TRIPOS>ATOM
      1 N1          0.0000    0.0000    0.0000 ns        1 G1C     -0.016400
      2 C2          1.3630    0.0000    0.0000 cc        1 G1C     -0.400200
      3 N2          2.0290    0.0000   -1.2000 nz        1 G1C      0.363400
      4 N3          2.0580    0.0000    1.1150 nd        1 G1C     -0.722100
      5 C4          1.4510    0.0010    2.3080 cd        1 G1C      0.007800
      6 C5          0.0530    0.0010    2.3740 cc        1 G1C     -0.053200
      7 C6         -0.6820    0.0000    1.1650 c         1 G1C      0.604000
      8 O6         -1.9010    0.0010    1.1760 o         1 G1C     -0.818500
      9 N7         -0.2870    0.0010    3.6860 nc        1 G1C     -0.531000
     10 C8          0.7930    0.0010    4.4110 cd        1 G1C      0.131400
     11 N9          1.8930    0.0010    3.6030 na        1 G1C      0.165100
     12 PA          4.5240   -1.6760    9.5360 p5        1 G1C      0.969800
     13 PB          5.4900   -4.1170   10.9120 p5        1 G1C      0.714600
     14 PG          6.4600   -6.8160   11.7090 p5        1 G1C      0.506700
     15 C1'         3.2910    0.0010    4.0420 c3        1 G1C      0.184800
     16 O1A         3.0080   -1.5630   10.0660 o         1 G1C     -0.664500
     17 O1B         4.2800   -4.2390   11.9680 o         1 G1C     -0.450500
     18 O1G         5.2500   -6.9390   12.7650 o         1 G1C     -0.490833
     19 C2'         3.8290    1.4450    4.0780 c3        1 G1C     -0.117400
     20 O2A         5.3960   -0.7930   10.3420 o         1 G1C     -0.664500
     21 O2B         6.6610   -3.5000   11.5740 o         1 G1C     -0.450500
     22 O2G         6.8550   -8.2820   11.1740 o         1 G1C     -0.490833
     23 C3'         4.2750    1.6460    5.5470 c3        1 G1C      0.146100
     24 O3'         5.5100    2.3620    5.6110 oh        1 G1C     -0.585800
     25 O3A         5.0280   -3.1990    9.6730 os        1 G1C     -0.505800
     26 C3B         5.9380   -5.7760   10.3050 c3        1 G1C      0.385300
     27 Cl3B        7.2920   -5.6390    9.1230 cl        1 G1C     -0.080400
     28 O3G         7.6310   -6.2000   12.3710 o         1 G1C     -0.490833
     29 C4'         4.4550    0.1860    6.0350 c3        1 G1C      0.152100
     30 O4'         3.3830   -0.5230    5.3770 os        1 G1C     -0.371600
     31 C5'         4.3020    0.1040    7.5550 c3        1 G1C      0.314400
     32 O5'         4.5870   -1.2270    7.9910 os        1 G1C     -0.501200
     33 HN1        -0.4980   -0.0000   -0.8680 hn        1 G1C      0.100500
     34 HN2         1.8100    0.8370   -1.7030 hn        1 G1C      0.053467
     35 HN2A        1.7480   -0.7960   -1.7380 hn        1 G1C      0.053467
     36 H8          0.8150    0.0010    5.4940 h5        1 G1C      0.019100
     37 H1'         3.8930   -0.5980    3.3700 h2        1 G1C      0.020700
     38 H2'         4.6740    1.5500    3.4090 hc        1 G1C      0.027700
     39 H2'A        3.0440    2.1470    3.8220 hc        1 G1C      0.027700
     40 H3'         3.5010    2.1470    6.1160 h1        1 G1C      0.015700
     41 HO3'        5.3370    3.2710    5.7920 ho        1 G1C      0.369000
     42 H3B         5.0800   -6.2270    9.8210 h1        1 G1C      0.027700
     43 H4'         5.4160   -0.2030    5.7200 h1        1 G1C      0.021700
     44 H5'         4.9920    0.7940    8.0250 h1        1 G1C     -0.014800
     45 H5'A        3.2870    0.3650    7.8300 h1        1 G1C     -0.014800
     46 H23         3.0160   -0.0420   -1.0350 hn        1 G1C      0.053467
@<TRIPOS>BOND
     1    1    2 1   
     2    1    7 1   
     3    1   33 1   
     4    2    3 1   
     5    2    4 2   
     6    3   34 1   
     7    3   35 1   
     8    3   46 1   
     9    4    5 1   
    10    5    6 2   
    11    5   11 1   
    12    6    7 1   
    13    6    9 1   
    14    7    8 2   
    15    9   10 2   
    16   10   11 1   
    17   10   36 1   
    18   11   15 1   
    19   12   16 1   
    20   12   20 1   
    21   12   25 1   
    22   12   32 1   
    23   13   17 1   
    24   13   21 1   
    25   13   25 1   
    26   13   26 1   
    27   14   18 1   
    28   14   22 1   
    29   14   26 1   
    30   14   28 1   
    31   15   19 1   
    32   15   30 1   
    33   15   37 1   
    34   19   23 1   
    35   19   38 1   
    36   19   39 1   
    37   23   24 1   
    38   23   29 1   
    39   23   40 1   
    40   24   41 1   
    41   26   27 1   
    42   26   42 1   
    43   29   30 1   
    44   29   31 1   
    45   29   43 1   
    46   31   32 1   
    47   31   44 1   
    48   31   45 1   
@<TRIPOS>SUBSTRUCTURE
     1 G1C         1 TEMP              0 ****  ****    0 ROOT
