@<TRIPOS>MOLECULE
molecule
   42    44     1     0     0
SMALL
bcc


@<TRIPOS>ATOM
      1 N            0.0000     0.0000     0.0000 n7         1 G1E      -0.794200
      2 CA           1.4700     0.0000     0.0000 c3         1 G1E       0.101500
      3 C            1.9730     1.2310    -0.7090 c          1 G1E       0.641100
      4 O            1.2450     2.1910    -0.8480 o          1 G1E      -0.501100
      5 CB           1.9770     0.0000     1.4450 c3         1 G1E       0.166800
      6 CAE          7.4380     6.8950    -5.0750 ca         1 G1E       0.355200
      7 CAF          6.0840     6.3970    -3.2790 ca         1 G1E       0.420200
      8 CAG          6.3920     4.7390    -4.9990 ca         1 G1E      -0.161000
      9 CAH         -0.0180    -1.1800     2.1440 c3         1 G1E       0.154800
     10 CAI         -0.5250    -1.1800     0.7000 c3         1 G1E       0.160800
     11 CAQ          2.9580     5.7010    -2.9740 c          1 G1E       0.493600
     12 CAS          7.2180     5.6490    -5.6500 ca         1 G1E       0.078300
     13 CAT          5.8050     5.1260    -3.7880 ca         1 G1E      -0.094300
     14 CAU          3.6960     2.3970    -1.8420 cc         1 G1E       0.589300
     15 CAV          3.6040     4.4710    -2.6910 cd         1 G1E       0.313800
     16 CAW          4.9070     4.2070    -3.0630 cc         1 G1E      -0.023400
     17 NAK          6.8760     7.2230    -3.9280 nb         1 G1E      -0.649000
     18 NAL          3.0040     3.4700    -2.0430 nd         1 G1E      -0.659000
     19 NAM          1.4520    -1.1800     2.1450 n7         1 G1E      -0.824200
     20 NAO          3.2320     1.2640    -1.1900 ns         1 G1E      -0.536400
     21 OAC          3.5130     6.5350    -3.6590 o          1 G1E      -0.524100
     22 SAP          5.3070     2.5790    -2.5240 ss         1 G1E      -0.241300
     23 H1          -0.3340     0.0040    -0.9440 hn         1 G1E       0.367800
     24 H3           1.8290    -0.8870    -0.5070 h1         1 G1E       0.040700
     25 H4           3.0590    -0.0320     1.4470 h1         1 G1E       0.047200
     26 H5           1.6350     0.8980     1.9460 h1         1 G1E       0.047200
     27 H6           1.2770     6.9760    -2.6920 hc         1 G1E       0.066367
     28 H7           1.5950     5.8720    -1.3470 hc         1 G1E       0.066367
     29 H8           0.8790     5.2590    -2.8430 hc         1 G1E       0.066367
     30 H9           8.0820     7.6080    -5.5770 h4         1 G1E       0.020100
     31 H10          5.6390     6.7080    -2.3410 h4         1 G1E       0.029100
     32 H11          6.2000     3.7610    -5.4220 ha         1 G1E       0.138000
     33 H12         -0.3780    -2.0660     2.6520 h1         1 G1E       0.044700
     34 H13         -0.3780    -0.2940     2.6520 h1         1 G1E       0.044700
     35 H14         -1.6080    -1.1480     0.6990 h1         1 G1E       0.043200
     36 H15         -0.1840    -2.0780     0.1990 h1         1 G1E       0.043200
     37 H16          7.6550     4.4150    -7.2750 hn         1 G1E       0.431800
     38 H17          8.4110     5.9740    -7.3300 hn         1 G1E       0.431800
     39 H18          1.7850    -1.1840     3.0890 hn         1 G1E       0.361800
     40 H20          3.8210     0.4590    -1.1070 hn         1 G1E       0.336500
     41 NAB          7.8180     5.3140    -6.8670 nv         1 G1E      -0.919200
     42 CAA          1.5800     5.9710    -2.4250 c3         1 G1E      -0.176100
@<TRIPOS>BOND
     1    41    12 1
     2    12     8 ar
     3    12     6 ar
     4     8    13 ar
     5     6    17 ar
     6    42    11 1
     7    13    16 1
     8    13     7 ar
     9    17     7 ar
    10    16    15 2
    11    16    22 1
    12    11    15 1
    13    11    21 2
    14    15    18 1
    15    22    14 1
    16    18    14 2
    17    14    20 1
    18    20     3 1
    19     4     3 2
    20     3     2 1
    21     2     1 1
    22     2     5 1
    23     1    10 1
    24    10     9 1
    25     5    19 1
    26    19     9 1
    27     1    23 1
    28     2    24 1
    29     5    25 1
    30     5    26 1
    31    42    27 1
    32    42    28 1
    33    42    29 1
    34     6    30 1
    35     7    31 1
    36     8    32 1
    37     9    33 1
    38     9    34 1
    39    10    35 1
    40    10    36 1
    41    41    37 1
    42    41    38 1
    43    19    39 1
    44    20    40 1
@<TRIPOS>SUBSTRUCTURE
     1 G1E         1 TEMP              0 ****  ****    0 ROOT
