@<TRIPOS>MOLECULE
G1H
   42    44     1     0     0
SMALL
bcc


@<TRIPOS>ATOM
      1 C1           0.0000     0.0000     0.0000 ca         1 G1H       0.097000
      2 C2           1.3800     0.0000     0.0000 ca         1 G1H      -0.496200
      3 C3           2.0680     0.0000     1.2040 ca         1 G1H       0.270100
      4 C5          -0.0400     0.0010     2.4000 ca         1 G1H       0.117000
      5 C4           1.3530     0.0020     2.4110 ca         1 G1H      -0.289600
      6 C6          -0.7070     0.0060     1.1930 ca         1 G1H      -0.274300
      7 N8           2.1230    -0.0020    -1.2800 no         1 G1H       1.058200
      8 O9           1.5170    -0.0510    -2.3350 o          1 G1H      -0.441500
      9 C7          -2.2140     0.0070     1.1710 c3         1 G1H       0.648200
     10 F28         -2.6970    -0.6580     2.3030 f          1 G1H      -0.201633
     11 F27         -2.6810     1.3260     1.1690 f          1 G1H      -0.201633
     12 F29         -2.6640    -0.6480     0.0190 f          1 G1H      -0.201633
     13 O11          3.4190    -0.0010     1.2500 os         1 G1H      -0.280700
     14 C12          4.0710    -0.0000     2.4200 cc         1 G1H       0.750500
     15 N13          3.4640     0.0000     3.5860 nd         1 G1H      -0.724100
     16 C14          2.1220    -0.0040     3.6720 c          1 G1H       0.749100
     17 O15          1.5610    -0.0090     4.7530 o          1 G1H      -0.562100
     18 N16          5.4340    -0.0010     2.4010 nh         1 G1H      -0.398600
     19 C21          6.1700     0.8250     1.4330 c3         1 G1H       0.161000
     20 C22          5.1890     1.7160     0.6700 c3         1 G1H      -0.045100
     21 C20          7.1730     1.6990     2.1930 c3         1 G1H      -0.042400
     22 C19          8.0620     0.8090     3.0650 c3         1 G1H      -0.028400
     23 C18          7.1990     0.0660     4.0860 c3         1 G1H      -0.042400
     24 C17          6.1960    -0.8220     3.3520 c3         1 G1H       0.161000
     25 C23          5.2380    -1.4570     4.3630 c3         1 G1H      -0.045100
     26 H1          -0.5360     0.0040    -0.9410 ha         1 G1H       0.148000
     27 H2          -0.5940     0.0060     3.3310 ha         1 G1H       0.145000
     28 H5           6.7010     0.1830     0.7400 h1         1 G1H       0.033200
     29 H6           4.6970     1.1340    -0.1000 hc         1 G1H       0.030700
     30 H7           5.7280     2.5370     0.2120 hc         1 G1H       0.030700
     31 H8           4.4480     2.1080     1.3560 hc         1 G1H       0.030700
     32 H9           7.7890     2.2390     1.4850 hc         1 G1H       0.029950
     33 H10          6.6370     2.3990     2.8220 hc         1 G1H       0.029950
     34 H11          8.5760     0.0900     2.4380 hc         1 G1H       0.019200
     35 H12          8.7860     1.4240     3.5850 hc         1 G1H       0.019200
     36 H13          6.6650     0.7840     4.6960 hc         1 G1H       0.029950
     37 H14          7.8330    -0.5490     4.7130 hc         1 G1H       0.029950
     38 H15          6.7270    -1.5980     2.8130 h1         1 G1H       0.033200
     39 H16          4.4570    -1.9900     3.8360 hc         1 G1H       0.030700
     40 H17          5.7850    -2.1480     4.9940 hc         1 G1H       0.030700
     41 H18          4.7960    -0.6820     4.9770 hc         1 G1H       0.030700
     42 OXT          3.3400     0.0450    -1.2780 o          1 G1H      -0.441500
@<TRIPOS>BOND
     1     1     2 ar  
     2     1     6 ar  
     3     1    26 1   
     4     2     3 ar  
     5     2     7 1   
     6     3     5 ar  
     7     3    13 1   
     8     4     5 ar  
     9     4     6 ar  
    10     4    27 1   
    11     5    16 1   
    12     6     9 1   
    13     7     8 1   
    14     7    42 1   
    15     9    10 1   
    16     9    11 1   
    17     9    12 1   
    18    13    14 1   
    19    14    15 2   
    20    14    18 1   
    21    15    16 1   
    22    16    17 2   
    23    18    19 1   
    24    18    24 1   
    25    19    20 1   
    26    19    21 1   
    27    19    28 1   
    28    20    29 1   
    29    20    30 1   
    30    20    31 1   
    31    21    22 1   
    32    21    32 1   
    33    21    33 1   
    34    22    23 1   
    35    22    34 1   
    36    22    35 1   
    37    23    24 1   
    38    23    36 1   
    39    23    37 1   
    40    24    25 1   
    41    24    38 1   
    42    25    39 1   
    43    25    40 1   
    44    25    41 1   
@<TRIPOS>SUBSTRUCTURE
     1 G1H         1 TEMP              0 ****  ****    0 ROOT
