@<TRIPOS>MOLECULE
molecule
   42    44     1     0     0
SMALL
bcc


@<TRIPOS>ATOM
      1 C1           0.0000     0.0000     0.0000 ca         1 G1H       0.019000
      2 C2           1.3800     0.0000     0.0000 ca         1 G1H      -0.192200
      3 C3           2.0680     0.0000     1.2040 ca         1 G1H       0.233100
      4 C5          -0.0400     0.0010     2.4000 ca         1 G1H       0.046000
      5 C4           1.3530     0.0020     2.4110 ca         1 G1H      -0.267600
      6 C6          -0.7070     0.0060     1.1930 ca         1 G1H      -0.226300
      7 N8           2.1230    -0.0020    -1.2800 no         1 G1H       0.302200
      8 O9           1.5170    -0.0510    -2.3350 o          1 G1H      -0.193000
      9 C7          -2.2140     0.0070     1.1710 c3         1 G1H       0.682200
     10 F28         -2.6970    -0.6580     2.3030 f          1 G1H      -0.214967
     11 F27         -2.6810     1.3260     1.1690 f          1 G1H      -0.214967
     12 F29         -2.6640    -0.6480     0.0190 f          1 G1H      -0.214967
     13 O11          3.4190    -0.0010     1.2500 os         1 G1H      -0.321700
     14 C12          4.0710    -0.0000     2.4200 cc         1 G1H       0.909500
     15 N13          3.4640     0.0000     3.5860 nd         1 G1H      -0.776100
     16 C14          2.1220    -0.0040     3.6720 c          1 G1H       0.731100
     17 O15          1.5610    -0.0090     4.7530 o          1 G1H      -0.525100
     18 N16          5.4340    -0.0010     2.4010 nh         1 G1H      -0.757600
     19 C21          6.1700     0.8250     1.4330 c3         1 G1H       0.250500
     20 C22          5.1890     1.7160     0.6700 c3         1 G1H      -0.112100
     21 C20          7.1730     1.6990     2.1930 c3         1 G1H      -0.093900
     22 C19          8.0620     0.8090     3.0650 c3         1 G1H      -0.085400
     23 C18          7.1990     0.0660     4.0860 c3         1 G1H      -0.093900
     24 C17          6.1960    -0.8220     3.3520 c3         1 G1H       0.250500
     25 C23          5.2380    -1.4570     4.3630 c3         1 G1H      -0.112100
     26 H1          -0.5360     0.0040    -0.9410 ha         1 G1H       0.189000
     27 H2          -0.5940     0.0060     3.3310 ha         1 G1H       0.188000
     28 H5           6.7010     0.1830     0.7400 h1         1 G1H       0.059700
     29 H6           4.6970     1.1340    -0.1000 hc         1 G1H       0.057867
     30 H7           5.7280     2.5370     0.2120 hc         1 G1H       0.057867
     31 H8           4.4480     2.1080     1.3560 hc         1 G1H       0.057867
     32 H9           7.7890     2.2390     1.4850 hc         1 G1H       0.058450
     33 H10          6.6370     2.3990     2.8220 hc         1 G1H       0.058450
     34 H11          8.5760     0.0900     2.4380 hc         1 G1H       0.047200
     35 H12          8.7860     1.4240     3.5850 hc         1 G1H       0.047200
     36 H13          6.6650     0.7840     4.6960 hc         1 G1H       0.058450
     37 H14          7.8330    -0.5490     4.7130 hc         1 G1H       0.058450
     38 H15          6.7270    -1.5980     2.8130 h1         1 G1H       0.059700
     39 H16          4.4570    -1.9900     3.8360 hc         1 G1H       0.057867
     40 H17          5.7850    -2.1480     4.9940 hc         1 G1H       0.057867
     41 H18          4.7960    -0.6820     4.9770 hc         1 G1H       0.057867
     42 OXT          3.3400     0.0450    -1.2780 o          1 G1H      -0.193000
@<TRIPOS>BOND
     1    12     9 1
     2    10     9 1
     3    17    16 2
     4     9    11 1
     5     9     6 1
     6     4     6 ar
     7     4     5 ar
     8    16     5 1
     9    16    15 1
    10     6     1 ar
    11     5     3 ar
    12    15    14 2
    13     1     2 ar
    14     3     2 ar
    15     3    13 1
    16    20    19 1
    17    14    13 1
    18    14    18 1
    19     2     7 1
    20    19    18 1
    21    19    21 1
    22    18    24 1
    23     7     8 1
    24    21    22 1
    25    25    24 1
    26    24    23 1
    27    22    23 1
    28     1    26 1
    29     4    27 1
    30    19    28 1
    31    20    29 1
    32    20    30 1
    33    20    31 1
    34    21    32 1
    35    21    33 1
    36    22    34 1
    37    22    35 1
    38    23    36 1
    39    23    37 1
    40    24    38 1
    41    25    39 1
    42    25    40 1
    43    25    41 1
    44     7    42 1
@<TRIPOS>SUBSTRUCTURE
     1 G1H         1 TEMP              0 ****  ****    0 ROOT
