@<TRIPOS>MOLECULE
G1K
   42    44     1     0     0
SMALL
bcc


@<TRIPOS>ATOM
      1 C1           0.0000     0.0000     0.0000 c          1 G1K       0.546700
      2 C10          1.2810    -0.7590     5.0630 c          1 G1K       0.615100
      3 C11          2.1930    -0.5090     6.2360 c3         1 G1K       0.139400
      4 C12          4.0410    -1.5040     7.3540 ca         1 G1K       0.172100
      5 C13          4.0140    -0.4300     8.2330 ca         1 G1K      -0.177500
      6 C14          4.9280    -0.3620     9.2660 ca         1 G1K      -0.064000
      7 C15          5.8710    -1.3620     9.4240 ca         1 G1K      -0.164000
      8 C16          5.9000    -2.4320     8.5490 ca         1 G1K      -0.064000
      9 C17          4.9870    -2.5060     7.5150 ca         1 G1K      -0.177500
     10 C2           1.4690     0.0000     0.0000 cc         1 G1K      -0.032100
     11 C3           2.1140     0.0000     1.2260 cd         1 G1K       0.063400
     12 C4           3.5920    -0.0000     1.2910 c          1 G1K       0.972800
     13 C5           0.0860     0.0010     2.3440 cc         1 G1K       0.157900
     14 C6          -0.6520     0.0010     3.6580 c3         1 G1K       0.027400
     15 C7          -1.5940     1.2220     3.7310 c3         1 G1K      -0.042400
     16 C8          -1.4730     1.6660     5.2130 c3         1 G1K      -0.033400
     17 C9           0.0170     1.3640     5.5070 c3         1 G1K       0.046000
     18 N1           1.3860     0.0010     2.3580 nd         1 G1K      -0.403300
     19 N2           0.3040     0.1210     4.7680 n          1 G1K      -0.149800
     20 N3          -0.6320     0.0000     1.1950 ns         1 G1K       0.024600
     21 O1          -0.6280     0.0040    -1.0430 o          1 G1K      -0.735500
     22 O2           2.1690    -0.0020    -1.1620 oh         1 G1K      -0.410100
     23 O3           4.2140     0.0000     2.4870 o          1 G1K      -0.858800
     24 O4           4.2450     0.0000     0.2680 o          1 G1K      -0.858800
     25 O5           3.1390    -1.5770     6.3410 os         1 G1K      -0.246900
     26 O6           1.4250    -1.7540     4.3840 o          1 G1K      -0.581100
     27 H1           1.6060    -0.4560     7.1450 h1         1 G1K       0.012700
     28 H2           2.7200     0.4270     6.0910 h1         1 G1K       0.012700
     29 H3           3.2760     0.3530     8.1090 ha         1 G1K       0.119000
     30 H4           4.9080     0.4760     9.9520 ha         1 G1K       0.092000
     31 H5           6.5870    -1.3070    10.2340 ha         1 G1K       0.095000
     32 H6           6.6390    -3.2140     8.6750 ha         1 G1K       0.092000
     33 H7           5.0100    -3.3450     6.8300 ha         1 G1K       0.119000
     34 H8          -1.2260    -0.9120     3.7650 h1         1 G1K       0.030700
     35 H9          -2.6120     0.9320     3.5010 hc         1 G1K       0.025200
     36 H10         -1.2520     2.0070     3.0680 hc         1 G1K       0.025200
     37 H11         -1.6800     2.7240     5.3160 hc         1 G1K       0.017700
     38 H12         -2.1200     1.0720     5.8470 hc         1 G1K       0.017700
     39 H13          0.6430     2.1700     5.1420 h1         1 G1K       0.017700
     40 H14          0.1670     1.2130     6.5690 h1         1 G1K       0.017700
     41 H15         -1.6320     0.0000     1.2310 hn         1 G1K       0.156500
     42 H16          1.9410    -0.7650    -1.6650 ho         1 G1K       0.383000
@<TRIPOS>BOND
     1     1    10 1   
     2     1    20 1   
     3     1    21 2   
     4     2     3 1   
     5     2    19 1   
     6     2    26 2   
     7     3    25 1   
     8     3    27 1   
     9     3    28 1   
    10     4     5 ar  
    11     4     9 ar  
    12     4    25 1   
    13     5     6 ar  
    14     5    29 1   
    15     6     7 ar  
    16     6    30 1   
    17     7     8 ar  
    18     7    31 1   
    19     8     9 ar  
    20     8    32 1   
    21     9    33 1   
    22    10    11 2   
    23    10    22 1   
    24    11    12 1   
    25    11    18 1   
    26    12    23 1   
    27    12    24 1   
    28    13    14 1   
    29    13    18 2   
    30    13    20 1   
    31    14    15 1   
    32    14    19 1   
    33    14    34 1   
    34    15    16 1   
    35    15    35 1   
    36    15    36 1   
    37    16    17 1   
    38    16    37 1   
    39    16    38 1   
    40    17    19 1   
    41    17    39 1   
    42    17    40 1   
    43    20    41 1   
    44    22    42 1   
@<TRIPOS>SUBSTRUCTURE
     1 G1K         1 TEMP              0 ****  ****    0 ROOT
