@<TRIPOS>MOLECULE
G1L
   31    31     1     0     0
SMALL
bcc


@<TRIPOS>ATOM
      1 F23          0.0000     0.0000     0.0000 f          1 G1L      -0.211967
      2 C20          1.3650     0.0000     0.0000 c3         1 G1L       0.638200
      3 F21          1.7220     0.0000     1.3190 f          1 G1L      -0.211967
      4 F22          1.7320     1.2250    -0.4780 f          1 G1L      -0.211967
      5 C3           1.9640    -1.1220    -0.7790 ca         1 G1L      -0.239300
      6 C2           1.1360    -2.0450    -1.4200 ca         1 G1L      -0.004500
      7 C1           1.6950    -3.0940    -2.1510 ca         1 G1L      -0.157500
      8 C4           3.3500    -1.2490    -0.8690 ca         1 G1L      -0.004500
      9 C5           3.9090    -2.2980    -1.5990 ca         1 G1L      -0.157500
     10 C6           3.0730    -3.2050    -2.2280 ca         1 G1L      -0.033400
     11 N11          3.6400    -4.2690    -2.9700 ns         1 G1L      -0.067100
     12 C12          2.9730    -5.2710    -3.6670 c          1 G1L       0.598100
     13 O18          1.7540    -5.4010    -3.7540 o          1 G1L      -0.588100
     14 C13          3.9310    -6.2730    -4.3640 c3         1 G1L      -0.165000
     15 C14          4.8170    -6.9480    -3.2980 c3         1 G1L       0.011900
     16 C15          3.1060    -7.3830    -5.0500 c3         1 G1L       0.011900
     17 C16          4.8390    -5.5700    -5.3980 c3         1 G1L       0.070000
     18 Cl17         3.9260    -4.7720    -6.7070 cl         1 G1L      -0.106400
     19 H2           0.0600    -1.9460    -1.3520 ha         1 G1L       0.117500
     20 H1           1.0590    -3.8140    -2.6500 ha         1 G1L       0.140000
     21 H4           3.9920    -0.5320    -0.3710 ha         1 G1L       0.117500
     22 H5           4.9850    -2.4020    -1.6720 ha         1 G1L       0.140000
     23 HN11         4.6400    -4.3040    -2.9970 hn         1 G1L       0.171500
     24 H141         5.2750    -7.8350    -3.7180 hc         1 G1L       0.015700
     25 H142         5.5900    -6.2580    -2.9820 hc         1 G1L       0.015700
     26 H143         4.2090    -7.2240    -2.4450 hc         1 G1L       0.015700
     27 H151         3.7740    -8.0720    -5.5530 hc         1 G1L       0.015700
     28 H152         2.4340    -6.9380    -5.7750 hc         1 G1L       0.015700
     29 H153         2.5290    -7.9180    -4.3050 hc         1 G1L       0.015700
     30 H161         5.5020    -6.3060    -5.8360 h1         1 G1L       0.025200
     31 H162         5.4360    -4.8250    -4.8860 h1         1 G1L       0.025200
@<TRIPOS>BOND
     1     1     2 1   
     2     2     3 1   
     3     2     4 1   
     4     2     5 1   
     5     5     6 ar  
     6     5     8 ar  
     7     6     7 ar  
     8     6    19 1   
     9     7    10 ar  
    10     7    20 1   
    11     8     9 ar  
    12     8    21 1   
    13     9    10 ar  
    14     9    22 1   
    15    10    11 1   
    16    11    12 1   
    17    11    23 1   
    18    12    13 2   
    19    12    14 1   
    20    14    15 1   
    21    14    16 1   
    22    14    17 1   
    23    15    24 1   
    24    15    25 1   
    25    15    26 1   
    26    16    27 1   
    27    16    28 1   
    28    16    29 1   
    29    17    18 1   
    30    17    30 1   
    31    17    31 1   
@<TRIPOS>SUBSTRUCTURE
     1 G1L         1 TEMP              0 ****  ****    0 ROOT
