@<TRIPOS>MOLECULE
G1M
   49    51     1     0     0
SMALL
bcc


@<TRIPOS>ATOM
      1 N1           0.0000     0.0000     0.0000 ns         1 G1M      -0.017400
      2 C2           1.3630     0.0000     0.0000 cc         1 G1M      -0.401200
      3 N2           2.0290     0.0010    -1.1990 nz         1 G1M       0.364400
      4 N3           2.0570     0.0000     1.1160 nd         1 G1M      -0.721100
      5 C4           1.4500    -0.0010     2.3080 cd         1 G1M       0.007800
      6 C5           0.0520    -0.0020     2.3750 cc         1 G1M      -0.054200
      7 C6          -0.6830    -0.0010     1.1660 c          1 G1M       0.604000
      8 O6          -1.9020    -0.0010     1.1770 o          1 G1M      -0.818500
      9 N7          -0.2890    -0.0030     3.6870 nc         1 G1M      -0.531000
     10 C8           0.7910    -0.0020     4.4120 cd         1 G1M       0.132400
     11 N9           1.8910    -0.0020     3.6040 na         1 G1M       0.164100
     12 PA           4.5220    -1.6830     9.5360 p5         1 G1M       0.967800
     13 PB           5.4870    -4.1250    10.9110 p5         1 G1M       0.713600
     14 PG           6.8660    -6.6740    11.5940 p5         1 G1M       0.508700
     15 C1'          3.2890    -0.0020     4.0430 c3         1 G1M       0.184800
     16 O1A          3.0050    -1.5720    10.0660 o          1 G1M      -0.664500
     17 O1B          4.2790    -4.2490    11.9660 o          1 G1M      -0.466500
     18 O1G          7.2620    -8.1380    11.0570 o          1 G1M      -0.505167
     19 C2'          3.8260     1.4420     4.0800 c3         1 G1M      -0.117400
     20 O2A          5.3930    -0.8000    10.3430 o          1 G1M      -0.664500
     21 O2B          6.6590    -3.5090    11.5730 o          1 G1M      -0.466500
     22 O2G          8.2040    -5.8530    11.9530 o          1 G1M      -0.505167
     23 C3'          4.2720     1.6430     5.5500 c3         1 G1M       0.146100
     24 O3'          5.5070     2.3590     5.6150 oh         1 G1M      -0.586800
     25 O3A          5.0260    -3.2060     9.6720 os         1 G1M      -0.507800
     26 C3B          5.9360    -5.7840    10.3030 c3         1 G1M       0.339900
     27 C3B2         4.6650    -6.5630     9.9610 c3         1 G1M      -0.004100
     28 O3G          6.0260    -6.8030    12.8060 o          1 G1M      -0.505167
     29 C4'          4.4530     0.1830     6.0360 c3         1 G1M       0.151100
     30 O4'          3.3820    -0.5270     5.3780 os         1 G1M      -0.370600
     31 C5'          4.3000     0.0990     7.5570 c3         1 G1M       0.314400
     32 O5'          4.5850    -1.2320     7.9910 os         1 G1M      -0.503200
     33 HN1         -0.4980     0.0010    -0.8680 hn         1 G1M       0.100500
     34 HN2          3.0160    -0.0100    -1.0320 hn         1 G1M       0.053800
     35 HN2A         1.7870     0.8240    -1.7140 hn         1 G1M       0.053800
     36 H8           0.8130    -0.0030     5.4950 h5         1 G1M       0.019100
     37 H1'          3.8920    -0.6000     3.3710 h2         1 G1M       0.020700
     38 H2'          3.0410     2.1440     3.8250 hc         1 G1M       0.027200
     39 H2'A         4.6720     1.5480     3.4110 hc         1 G1M       0.027200
     40 H3'          3.4980     2.1430     6.1200 h1         1 G1M       0.015700
     41 HO3'         5.3340     3.2690     5.7900 ho         1 G1M       0.369000
     42 H3B          6.5510    -5.6890     9.4160 hc         1 G1M       0.019700
     43 HC3B         4.6180    -7.4610    10.5640 hc         1 G1M       0.020033
     44 HC3A         4.6780    -6.8330     8.9120 hc         1 G1M       0.020033
     45 HC3C         3.7970    -5.9460    10.1640 hc         1 G1M       0.020033
     46 H4'          5.4140    -0.2050     5.7220 h1         1 G1M       0.021700
     47 H5'          4.9900     0.7890     8.0280 h1         1 G1M      -0.014800
     48 H5'A         3.2850     0.3590     7.8320 h1         1 G1M      -0.014800
     49 H23          1.7750    -0.8130    -1.7230 hn         1 G1M       0.053800
@<TRIPOS>BOND
     1     1     2 1   
     2     1     7 1   
     3     1    33 1   
     4     2     3 1   
     5     2     4 2   
     6     3    34 1   
     7     3    35 1   
     8     3    49 1   
     9     4     5 1   
    10     5     6 2   
    11     5    11 1   
    12     6     7 1   
    13     6     9 1   
    14     7     8 2   
    15     9    10 2   
    16    10    11 1   
    17    10    36 1   
    18    11    15 1   
    19    12    16 1   
    20    12    20 1   
    21    12    25 1   
    22    12    32 1   
    23    13    17 1   
    24    13    21 1   
    25    13    25 1   
    26    13    26 1   
    27    14    18 1   
    28    14    22 1   
    29    14    26 1   
    30    14    28 1   
    31    15    19 1   
    32    15    30 1   
    33    15    37 1   
    34    19    23 1   
    35    19    38 1   
    36    19    39 1   
    37    23    24 1   
    38    23    29 1   
    39    23    40 1   
    40    24    41 1   
    41    26    27 1   
    42    26    42 1   
    43    27    43 1   
    44    27    44 1   
    45    27    45 1   
    46    29    30 1   
    47    29    31 1   
    48    29    46 1   
    49    31    32 1   
    50    31    47 1   
    51    31    48 1   
@<TRIPOS>SUBSTRUCTURE
     1 G1M         1 TEMP              0 ****  ****    0 ROOT
