@<TRIPOS>MOLECULE
molecule
   24    25     1     0     0
SMALL
bcc


@<TRIPOS>ATOM
      1 O24          0.0000     0.0000     0.0000 o          1 G1N      -0.818300
      2 C6           1.3490     0.0000     0.0000 c          1 G1N       0.807100
      3 O25          1.9580     0.0000     1.0530 o          1 G1N      -0.818300
      4 C4           2.0800     0.0000    -1.2660 cc         1 G1N       0.311800
      5 N3           1.4700     0.0010    -2.4570 nc         1 G1N      -0.584000
      6 C2           2.2160     0.0010    -3.5020 cd         1 G1N       0.429300
      7 S1           3.9130     0.0010    -3.0360 ss         1 G1N      -0.402300
      8 C5           3.4560     0.0060    -1.3350 cd         1 G1N       0.145200
      9 N9           4.3230     0.0110    -0.2610 nu         1 G1N      -0.704500
     10 S10          5.9580     0.0170    -0.5160 sy         1 G1N       1.409200
     11 O12          6.5660     0.0560     0.7680 o          1 G1N      -0.636300
     12 O11          6.2190    -1.0060    -1.4680 o          1 G1N      -0.636300
     13 C15          6.3580     1.5420    -1.3030 ca         1 G1N      -0.436800
     14 C16          6.3460     1.6430    -2.6860 ca         1 G1N       0.021000
     15 C17          6.6610     2.8660    -3.2600 ca         1 G1N      -0.285300
     16 C18          6.9750     3.9340    -2.4420 ca         1 G1N       0.461200
     17 N19          6.9750     3.8010    -1.1290 nb         1 G1N      -0.716000
     18 C20          6.6810     2.6550    -0.5490 ca         1 G1N       0.522200
     19 H2           1.8530    -0.0000    -4.5220 h5         1 G1N       0.044100
     20 H3           3.9630    -0.0140     0.6730 hn         1 G1N       0.520800
     21 H4           6.0950     0.7890    -3.3020 ha         1 G1N       0.170000
     22 H5           6.6620     2.9810    -4.3380 ha         1 G1N       0.137000
     23 H6           7.2220     4.8920    -2.8840 h4         1 G1N       0.015100
     24 H7           6.6920     2.5850     0.5320 h4         1 G1N       0.044100
@<TRIPOS>BOND
     1    15    16 ar
     2    15    14 ar
     3    16    17 ar
     4    14    13 ar
     5    17    18 ar
     6    13    18 ar
     7    13    10 1
     8    11    10 2
     9    10     9 1
    10    10    12 2
    11     9     8 1
    12     3     2 1
    13     8     4 2
    14     8     7 1
    15     2     4 1
    16     2     1 1
    17     4     5 1
    18     7     6 1
    19     5     6 2
    20     6    19 1
    21     9    20 1
    22    14    21 1
    23    15    22 1
    24    16    23 1
    25    18    24 1
@<TRIPOS>SUBSTRUCTURE
     1 G1N         1 TEMP              0 ****  ****    0 ROOT
