@<TRIPOS>MOLECULE
G1N
   24    25     1     0     0
SMALL
bcc


@<TRIPOS>ATOM
      1 O24          0.0000     0.0000     0.0000 o          1 G1N      -0.868300
      2 C6           1.3490     0.0000     0.0000 c          1 G1N       0.896100
      3 O25          1.9580     0.0000     1.0530 o          1 G1N      -0.868300
      4 C4           2.0800     0.0000    -1.2660 cc         1 G1N       0.237800
      5 N3           1.4700     0.0010    -2.4570 nc         1 G1N      -0.437000
      6 C2           2.2160     0.0010    -3.5020 cd         1 G1N       0.397300
      7 S1           3.9130     0.0010    -3.0360 ss         1 G1N      -0.455300
      8 C5           3.4560     0.0060    -1.3350 cd         1 G1N       0.090200
      9 N9           4.3230     0.0110    -0.2610 nu         1 G1N      -0.318500
     10 S10          5.9580     0.0170    -0.5160 sy         1 G1N       1.016200
     11 O12          6.5660     0.0560     0.7680 o          1 G1N      -0.589800
     12 O11          6.2190    -1.0060    -1.4680 o          1 G1N      -0.589800
     13 C15          6.3580     1.5420    -1.3030 ca         1 G1N      -0.283800
     14 C16          6.3460     1.6430    -2.6860 ca         1 G1N       0.042000
     15 C17          6.6610     2.8660    -3.2600 ca         1 G1N      -0.264300
     16 C18          6.9750     3.9340    -2.4420 ca         1 G1N       0.447200
     17 N19          6.9750     3.8010    -1.1290 nb         1 G1N      -0.625000
     18 C20          6.6810     2.6550    -0.5490 ca         1 G1N       0.513200
     19 H2           1.8530    -0.0000    -4.5220 h5         1 G1N       0.010100
     20 H3           3.9630    -0.0140     0.6730 hn         1 G1N       0.411800
     21 H4           6.0950     0.7890    -3.3020 ha         1 G1N       0.156000
     22 H5           6.6620     2.9810    -4.3380 ha         1 G1N       0.112000
     23 H6           7.2220     4.8920    -2.8840 h4         1 G1N      -0.030900
     24 H7           6.6920     2.5850     0.5320 h4         1 G1N       0.000100
@<TRIPOS>BOND
     1     1     2 1   
     2     2     3 1   
     3     2     4 1   
     4     4     5 1   
     5     4     8 2   
     6     5     6 2   
     7     6     7 1   
     8     6    19 1   
     9     7     8 1   
    10     8     9 1   
    11     9    10 1   
    12     9    20 1   
    13    10    11 2   
    14    10    12 2   
    15    10    13 1   
    16    13    14 ar  
    17    13    18 ar  
    18    14    15 ar  
    19    14    21 1   
    20    15    16 ar  
    21    15    22 1   
    22    16    17 ar  
    23    16    23 1   
    24    17    18 ar  
    25    18    24 1   
@<TRIPOS>SUBSTRUCTURE
     1 G1N         1 TEMP              0 ****  ****    0 ROOT
