@<TRIPOS>MOLECULE
molecule
   23    24     1     0     0
SMALL
bcc


@<TRIPOS>ATOM
      1 CAA          0.0000     0.0000     0.0000 ca         1 G1O      -0.064000
      2 CAB          1.3770     0.0000     0.0000 ca         1 G1O      -0.147000
      3 CAC          2.0880     0.0000     1.1920 ca         1 G1O      -0.116000
      4 CAD          1.4280    -0.0010     2.4070 ca         1 G1O       0.152600
      5 CAE          0.0260    -0.0000     2.4290 ca         1 G1O      -0.008800
      6 CAF         -0.6920    -0.0000     1.2120 ca         1 G1O      -0.152600
      7 CAG         -2.1580     0.0010     1.2690 c          1 G1O       0.706100
      8 CAH         -0.7290    -0.0000     3.6830 cc         1 G1O      -0.144400
      9 CAI         -2.0710     0.0010     3.6450 cd         1 G1O      -0.021400
     10 NAJ         -2.7700     0.0020     2.4700 ns         1 G1O      -0.437100
     11 OAK         -2.8140     0.0020     0.2430 o          1 G1O      -0.642500
     12 NAL          2.1510    -0.0020     3.6020 nv         1 G1O      -0.986200
     13 CAM         -0.0070    -0.0010     5.0050 c3         1 G1O      -0.015900
     14 HAA         -0.5440    -0.0000    -0.9370 ha         1 G1O       0.155000
     15 HAB          1.9120     0.0010    -0.9420 ha         1 G1O       0.134000
     16 HAC          3.1710     0.0000     1.1700 ha         1 G1O       0.136000
     17 HAI         -2.6200     0.0020     4.5790 h4         1 G1O       0.148000
     18 HNAJ        -3.7700     0.0030     2.5030 hn         1 G1O       0.333500
     19 HNAL         2.4370    -0.8690     4.0130 hn         1 G1O       0.428800
     20 HNAA         2.4380     0.8640     4.0130 hn         1 G1O       0.428800
     21 HAM          0.6150     0.8830     5.0770 hc         1 G1O       0.038367
     22 HAMA         0.6140    -0.8860     5.0760 hc         1 G1O       0.038367
     23 HAMB        -0.7300    -0.0010     5.8110 hc         1 G1O       0.038367
@<TRIPOS>BOND
     1     1     2 ar
     2     1     6 ar
     3     2     3 ar
     4     3     4 ar
     5     4     5 ar
     6     4    12 1
     7     5     6 ar
     8     5     8 1
     9     6     7 1
    10     7    10 1
    11     7    11 2
    12     8     9 2
    13     8    13 1
    14     9    10 1
    15     1    14 1
    16     2    15 1
    17     3    16 1
    18     9    17 1
    19    10    18 1
    20    12    19 1
    21    12    20 1
    22    13    21 1
    23    13    22 1
    24    13    23 1
@<TRIPOS>SUBSTRUCTURE
     1 G1O         1 TEMP              0 ****  ****    0 ROOT
