@<TRIPOS>MOLECULE
G1O
   23    24     1     0     0
SMALL
bcc


@<TRIPOS>ATOM
      1 CAA          0.0000     0.0000     0.0000 ca         1 G1O      -0.027000
      2 CAB          1.3770     0.0000     0.0000 ca         1 G1O      -0.122000
      3 CAC          2.0880     0.0000     1.1920 ca         1 G1O      -0.087000
      4 CAD          1.4280    -0.0010     2.4070 ca         1 G1O       0.021600
      5 CAE          0.0260    -0.0000     2.4290 ca         1 G1O      -0.000800
      6 CAF         -0.6920    -0.0000     1.2120 ca         1 G1O      -0.159600
      7 CAG         -2.1580     0.0010     1.2690 c          1 G1O       0.607100
      8 CAH         -0.7290    -0.0000     3.6830 cc         1 G1O      -0.136400
      9 CAI         -2.0710     0.0010     3.6450 cd         1 G1O      -0.165400
     10 NAJ         -2.7700     0.0020     2.4700 ns         1 G1O       0.037900
     11 OAK         -2.8140     0.0020     0.2430 o          1 G1O      -0.687500
     12 NAL          2.1510    -0.0020     3.6020 nv         1 G1O      -0.565200
     13 CAM         -0.0070    -0.0010     5.0050 c3         1 G1O       0.071100
     14 HAA         -0.5440    -0.0000    -0.9370 ha         1 G1O       0.125000
     15 HAB          1.9120     0.0010    -0.9420 ha         1 G1O       0.105000
     16 HAC          3.1710     0.0000     1.1700 ha         1 G1O       0.106000
     17 HAI         -2.6200     0.0020     4.5790 h4         1 G1O       0.124000
     18 HNAJ        -3.7700     0.0030     2.5030 hn         1 G1O       0.168500
     19 HNAL         2.4370    -0.8690     4.0130 hn         1 G1O       0.277800
     20 HNAA         2.4380     0.8640     4.0130 hn         1 G1O       0.277800
     21 HAM          0.6150     0.8830     5.0770 hc         1 G1O       0.009033
     22 HAMA         0.6140    -0.8860     5.0760 hc         1 G1O       0.009033
     23 HAMB        -0.7300    -0.0010     5.8110 hc         1 G1O       0.009033
@<TRIPOS>BOND
     1     1     2 ar  
     2     1     6 ar  
     3     1    14 1   
     4     2     3 ar  
     5     2    15 1   
     6     3     4 ar  
     7     3    16 1   
     8     4     5 ar  
     9     4    12 1   
    10     5     6 ar  
    11     5     8 1   
    12     6     7 1   
    13     7    10 1   
    14     7    11 2   
    15     8     9 2   
    16     8    13 1   
    17     9    10 1   
    18     9    17 1   
    19    10    18 1   
    20    12    19 1   
    21    12    20 1   
    22    13    21 1   
    23    13    22 1   
    24    13    23 1   
@<TRIPOS>SUBSTRUCTURE
     1 G1O         1 TEMP              0 ****  ****    0 ROOT
