@<TRIPOS>MOLECULE
G1T
   37    39     1     0     0
SMALL
bcc


@<TRIPOS>ATOM
      1 N1           0.0000     0.0000     0.0000 nc         1 G1T      -0.697100
      2 N3           2.1040    -0.0030     4.8380 nu         1 G1T      -0.201100
      3 C4           2.2480     0.0000     1.1240 ca         1 G1T      -0.128600
      4 C5           1.7640    -0.0020     2.4480 ca         1 G1T       0.019900
      5 C6           2.6140    -0.0020     3.5360 ca         1 G1T       0.100600
      6 C7           1.3130     0.0000     0.0000 c          1 G1T       0.715100
      7 C8          -0.8060    -0.0020     1.0550 cd         1 G1T       0.603100
      8 C10         -4.0120     1.1630     2.0360 c3         1 G1T      -0.040400
      9 C13         -2.8070    -0.0010    -0.3870 c3         1 G1T       0.147300
     10 F3           6.6250     0.0040     3.0290 f          1 G1T      -0.206300
     11 C14          5.9680     0.0020     1.7940 c3         1 G1T       0.638200
     12 F1           6.3310     1.1450     1.0720 f          1 G1T      -0.206300
     13 F2           6.3340    -1.1400     1.0730 f          1 G1T      -0.206300
     14 C2           4.4780     0.0000     2.0170 ca         1 G1T      -0.174300
     15 C3           3.6340     0.0010     0.9300 ca         1 G1T      -0.019000
     16 O1           1.8300     0.0020    -1.1040 o          1 G1T      -0.576100
     17 S           -0.0050    -0.0030     2.5940 ss         1 G1T      -0.323100
     18 O2           2.9870    -0.0040     5.9440 oh         1 G1T      -0.421300
     19 C1           3.9860     0.0000     3.3140 ca         1 G1T      -0.087000
     20 N2          -2.1700    -0.0030     0.9380 nh         1 G1T      -0.324600
     21 C12         -3.7970     1.1660    -0.4550 c3         1 G1T      -0.040400
     22 C11         -4.7790     1.0670     0.7140 c3         1 G1T      -0.030400
     23 C9          -3.0250    -0.0050     2.1330 c3         1 G1T       0.147300
     24 H1           1.1140    -0.0210     4.9880 hn         1 G1T       0.293800
     25 H2          -3.4680     2.0990     2.0700 hc         1 G1T       0.027450
     26 H3          -4.7110     1.1140     2.8620 hc         1 G1T       0.027450
     27 H4          -3.3360    -0.9340    -0.5350 h1         1 G1T       0.042950
     28 H5          -2.0510     0.1210    -1.1530 h1         1 G1T       0.042950
     29 H6           4.0410    -0.0690    -0.0720 ha         1 G1T       0.144000
     30 H7           2.4890     0.0110     6.7440 ho         1 G1T       0.406000
     31 H8           4.6700     0.0030     4.1530 ha         1 G1T       0.145000
     32 H9          -3.2560     2.1030    -0.3930 hc         1 G1T       0.027450
     33 H10         -4.3440     1.1210    -1.3890 hc         1 G1T       0.027450
     34 H11         -5.2990     0.1180     0.6680 hc         1 G1T       0.020200
     35 H12         -5.4930     1.8800     0.6540 hc         1 G1T       0.020200
     36 H13         -3.5710    -0.9380     2.1860 h1         1 G1T       0.042950
     37 H14         -2.4100     0.1130     3.0180 h1         1 G1T       0.042950
@<TRIPOS>BOND
     1     1     6 1   
     2     1     7 2   
     3     2     5 1   
     4     2    18 1   
     5     2    24 1   
     6     3     4 ar  
     7     3     6 1   
     8     3    15 ar  
     9     4     5 ar  
    10     4    17 1   
    11     5    19 ar  
    12     6    16 2   
    13     7    17 1   
    14     7    20 1   
    15     8    22 1   
    16     8    23 1   
    17     8    25 1   
    18     8    26 1   
    19     9    20 1   
    20     9    21 1   
    21     9    27 1   
    22     9    28 1   
    23    10    11 1   
    24    11    12 1   
    25    11    13 1   
    26    11    14 1   
    27    14    15 ar  
    28    14    19 ar  
    29    15    29 1   
    30    18    30 1   
    31    19    31 1   
    32    20    23 1   
    33    21    22 1   
    34    21    32 1   
    35    21    33 1   
    36    22    34 1   
    37    22    35 1   
    38    23    36 1   
    39    23    37 1   
@<TRIPOS>SUBSTRUCTURE
     1 G1T         1 TEMP              0 ****  ****    0 ROOT
