@<TRIPOS>MOLECULE
molecule
   37    39     1     0     0
SMALL
bcc


@<TRIPOS>ATOM
      1 N1           0.0000     0.0000     0.0000 nc         1 G1T      -0.797100
      2 N3           2.1040    -0.0030     4.8380 nu         1 G1T      -0.634100
      3 C4           2.2480     0.0000     1.1240 ca         1 G1T      -0.137600
      4 C5           1.7640    -0.0020     2.4480 ca         1 G1T      -0.006100
      5 C6           2.6140    -0.0020     3.5360 ca         1 G1T       0.247600
      6 C7           1.3130     0.0000     0.0000 c          1 G1T       0.725100
      7 C8          -0.8060    -0.0020     1.0550 cd         1 G1T       0.769100
      8 C10         -4.0120     1.1630     2.0360 c3         1 G1T      -0.100900
      9 C13         -2.8070    -0.0010    -0.3870 c3         1 G1T       0.227800
     10 F3           6.6250     0.0040     3.0290 f          1 G1T      -0.220633
     11 C14          5.9680     0.0020     1.7940 c3         1 G1T       0.674200
     12 F1           6.3310     1.1450     1.0720 f          1 G1T      -0.220633
     13 F2           6.3340    -1.1400     1.0730 f          1 G1T      -0.220633
     14 C2           4.4780     0.0000     2.0170 ca         1 G1T      -0.151300
     15 C3           3.6340     0.0010     0.9300 ca         1 G1T      -0.057000
     16 O1           1.8300     0.0020    -1.1040 o          1 G1T      -0.543100
     17 S           -0.0050    -0.0030     2.5940 ss         1 G1T      -0.251100
     18 O2           2.9870    -0.0040     5.9440 oh         1 G1T      -0.334300
     19 C1           3.9860     0.0000     3.3140 ca         1 G1T      -0.114000
     20 N2          -2.1700    -0.0030     0.9380 nh         1 G1T      -0.724600
     21 C12         -3.7970     1.1660    -0.4550 c3         1 G1T      -0.100900
     22 C11         -4.7790     1.0670     0.7140 c3         1 G1T      -0.084400
     23 C9          -3.0250    -0.0050     2.1330 c3         1 G1T       0.227800
     24 H1           1.1140    -0.0210     4.9880 hn         1 G1T       0.462800
     25 H2          -3.4680     2.0990     2.0700 hc         1 G1T       0.057450
     26 H3          -4.7110     1.1140     2.8620 hc         1 G1T       0.057450
     27 H4          -3.3360    -0.9340    -0.5350 h1         1 G1T       0.068450
     28 H5          -2.0510     0.1210    -1.1530 h1         1 G1T       0.068450
     29 H6           4.0410    -0.0690    -0.0720 ha         1 G1T       0.175000
     30 H7           2.4890     0.0110     6.7440 ho         1 G1T       0.411000
     31 H8           4.6700     0.0030     4.1530 ha         1 G1T       0.175000
     32 H9          -3.2560     2.1030    -0.3930 hc         1 G1T       0.057450
     33 H10         -4.3440     1.1210    -1.3890 hc         1 G1T       0.057450
     34 H11         -5.2990     0.1180     0.6680 hc         1 G1T       0.048200
     35 H12         -5.4930     1.8800     0.6540 hc         1 G1T       0.048200
     36 H13         -3.5710    -0.9380     2.1860 h1         1 G1T       0.068450
     37 H14         -2.4100     0.1130     3.0180 h1         1 G1T       0.068450
@<TRIPOS>BOND
     1    13    11 1
     2    10    11 1
     3    11    12 1
     4    11    14 1
     5    16     6 2
     6    15    14 ar
     7    15     3 ar
     8    14    19 ar
     9     6     3 1
    10     6     1 1
    11     3     4 ar
    12     1     7 2
    13    19     5 ar
    14     4     5 ar
    15     4    17 1
    16     5     2 1
    17     7    20 1
    18     7    17 1
    19    23    20 1
    20    23     8 1
    21    20     9 1
    22     8    22 1
    23     2    18 1
    24     9    21 1
    25    22    21 1
    26     2    24 1
    27     8    25 1
    28     8    26 1
    29     9    27 1
    30     9    28 1
    31    15    29 1
    32    18    30 1
    33    19    31 1
    34    21    32 1
    35    21    33 1
    36    22    34 1
    37    22    35 1
    38    23    36 1
    39    23    37 1
@<TRIPOS>SUBSTRUCTURE
     1 G1T         1 TEMP              0 ****  ****    0 ROOT
