@<TRIPOS>MOLECULE
G1W
   57    60     1     0     0
SMALL
bcc


@<TRIPOS>ATOM
      1 C1           0.0000     0.0000     0.0000 ca         1 G1W      -0.179000
      2 C2           1.3910     0.0000     0.0000 ca         1 G1W       0.166900
      3 C3           2.0960     0.0000     1.1870 ca         1 G1W      -0.203000
      4 C4           1.4070    -0.0010     2.3960 ca         1 G1W       0.039600
      5 C5          -0.0010    -0.0000     2.3890 ca         1 G1W      -0.222600
      6 C6          -0.6930     0.0000     1.1760 ca         1 G1W       0.025000
      7 C7          -0.7130     0.0000     3.6760 c          1 G1W       0.647900
      8 O8          -1.9320     0.0000     3.7200 o          1 G1W      -0.598100
      9 N9           2.0830    -0.0010     3.5970 na         1 G1W       0.132800
     10 C10          3.4800    -0.0010     3.5930 ca         1 G1W      -0.099400
     11 C11          4.1760    -1.2030     3.6380 ca         1 G1W      -0.063500
     12 C12          5.5570    -1.2000     3.6350 ca         1 G1W      -0.097500
     13 C13          6.2470    -0.0020     3.5860 ca         1 G1W      -0.068000
     14 C14          5.5580     1.1960     3.5420 ca         1 G1W      -0.097500
     15 C15          4.1760     1.2000     3.5390 ca         1 G1W      -0.063500
     16 C16          0.0630    -0.0010     4.8660 cc         1 G1W      -0.247400
     17 C17         -0.6180    -0.0000     6.2110 c3         1 G1W       0.094100
     18 C18         -0.9730     1.4140     6.5930 ca         1 G1W      -0.042300
     19 C19         -0.0710     2.1850     7.3030 ca         1 G1W      -0.129500
     20 C20         -0.3980     3.4810     7.6540 ca         1 G1W       0.003000
     21 C21         -1.6250     4.0070     7.2960 ca         1 G1W      -0.160500
     22 C22         -2.5260     3.2350     6.5870 ca         1 G1W       0.003000
     23 C23         -2.1990     1.9400     6.2310 ca         1 G1W      -0.129500
     24 S24         -2.0410     5.6580     7.7450 sy         1 G1W       0.878300
     25 F25          2.0610    -0.0000    -1.1730 f          1 G1W      -0.125900
     26 C26          1.4180    -0.0010     4.7920 cd         1 G1W      -0.041200
     27 C27          2.2040    -0.0010     6.0470 c          1 G1W       0.718300
     28 C28         -1.4590     6.6660     6.3520 c3         1 G1W      -0.011600
     29 C29         -1.7660     8.1400     6.6260 c3         1 G1W       0.258400
     30 O30         -1.3070     8.9330     5.5290 oh         1 G1W      -0.596800
     31 O31          2.7320     1.0220     6.4330 o          1 G1W      -0.562000
     32 O32          2.3340    -1.1370     6.7600 os         1 G1W      -0.403900
     33 C33          3.1190    -1.0630     7.9790 c3         1 G1W       0.266700
     34 O34         -3.4610     5.6600     7.8010 o          1 G1W      -0.589800
     35 O35         -1.2600     5.9140     8.9040 o          1 G1W      -0.589800
     36 H1          -0.5370    -0.0000    -0.9410 ha         1 G1W       0.125000
     37 H2           3.1790    -0.0000     1.1770 ha         1 G1W       0.140000
     38 H3          -1.7760     0.0000     1.1690 ha         1 G1W       0.129000
     39 H4           3.6360    -2.1410     3.6760 ha         1 G1W       0.119000
     40 H5           6.1000    -2.1360     3.6700 ha         1 G1W       0.112500
     41 H6           7.3300    -0.0030     3.5860 ha         1 G1W       0.108000
     42 H7           6.1020     2.1320     3.5020 ha         1 G1W       0.112500
     43 H8           3.6370     2.1390     3.5040 ha         1 G1W       0.119000
     44 H9           0.0500    -0.4190     6.9540 hc         1 G1W       0.034700
     45 H10         -1.5200    -0.5980     6.1590 hc         1 G1W       0.034700
     46 H11          0.8910     1.7730     7.5830 ha         1 G1W       0.127500
     47 H12          0.3090     4.0860     8.2100 ha         1 G1W       0.122500
     48 H13         -3.4870     3.6470     6.3050 ha         1 G1W       0.122500
     49 H14         -2.9050     1.3360     5.6750 ha         1 G1W       0.127500
     50 H15         -1.9630     6.3540     5.4460 h1         1 G1W       0.073700
     51 H16         -0.3900     6.5350     6.2340 h1         1 G1W       0.073700
     52 H17         -2.8350     8.2710     6.7440 h1         1 G1W      -0.001300
     53 H18         -1.2610     8.4520     7.5330 h1         1 G1W      -0.001300
     54 H19         -1.5070     9.8400     5.6920 ho         1 G1W       0.396000
     55 H20          2.6090    -0.4330     8.6990 h1         1 G1W       0.005700
     56 H21          3.2400    -2.0570     8.3920 h1         1 G1W       0.005700
     57 H22          4.0920    -0.6430     7.7580 h1         1 G1W       0.005700
@<TRIPOS>BOND
     1     1     2 ar  
     2     1     6 ar  
     3     1    36 1   
     4     2     3 ar  
     5     2    25 1   
     6     3     4 ar  
     7     3    37 1   
     8     4     5 ar  
     9     4     9 1   
    10     5     6 ar  
    11     5     7 1   
    12     6    38 1   
    13     7     8 2   
    14     7    16 1   
    15     9    10 1   
    16     9    26 1   
    17    10    11 ar  
    18    10    15 ar  
    19    11    12 ar  
    20    11    39 1   
    21    12    13 ar  
    22    12    40 1   
    23    13    14 ar  
    24    13    41 1   
    25    14    15 ar  
    26    14    42 1   
    27    15    43 1   
    28    16    17 1   
    29    16    26 2   
    30    17    18 1   
    31    17    44 1   
    32    17    45 1   
    33    18    19 ar  
    34    18    23 ar  
    35    19    20 ar  
    36    19    46 1   
    37    20    21 ar  
    38    20    47 1   
    39    21    22 ar  
    40    21    24 1   
    41    22    23 ar  
    42    22    48 1   
    43    23    49 1   
    44    24    28 1   
    45    24    34 2   
    46    24    35 2   
    47    26    27 1   
    48    27    31 2   
    49    27    32 1   
    50    28    29 1   
    51    28    50 1   
    52    28    51 1   
    53    29    30 1   
    54    29    52 1   
    55    29    53 1   
    56    30    54 1   
    57    32    33 1   
    58    33    55 1   
    59    33    56 1   
    60    33    57 1   
@<TRIPOS>SUBSTRUCTURE
     1 G1W         1 TEMP              0 ****  ****    0 ROOT
