@<TRIPOS>MOLECULE
molecule
   57    60     1     0     0
SMALL
bcc


@<TRIPOS>ATOM
      1 C1           0.0000     0.0000     0.0000 ca         1 G1W      -0.210000
      2 C2           1.3910     0.0000     0.0000 ca         1 G1W       0.191900
      3 C3           2.0960     0.0000     1.1870 ca         1 G1W      -0.229000
      4 C4           1.4070    -0.0010     2.3960 ca         1 G1W       0.216600
      5 C5          -0.0010    -0.0000     2.3890 ca         1 G1W      -0.222600
      6 C6          -0.6930     0.0000     1.1760 ca         1 G1W      -0.012000
      7 C7          -0.7130     0.0000     3.6760 c          1 G1W       0.596900
      8 O8          -1.9320     0.0000     3.7200 o          1 G1W      -0.559100
      9 N9           2.0830    -0.0010     3.5970 na         1 G1W      -0.376200
     10 C10          3.4800    -0.0010     3.5930 ca         1 G1W       0.074600
     11 C11          4.1760    -1.2030     3.6380 ca         1 G1W      -0.103500
     12 C12          5.5570    -1.2000     3.6350 ca         1 G1W      -0.125500
     13 C13          6.2470    -0.0020     3.5860 ca         1 G1W      -0.108000
     14 C14          5.5580     1.1960     3.5420 ca         1 G1W      -0.125500
     15 C15          4.1760     1.2000     3.5390 ca         1 G1W      -0.103500
     16 C16          0.0630    -0.0010     4.8660 cc         1 G1W      -0.235400
     17 C17         -0.6180    -0.0000     6.2110 c3         1 G1W       0.020100
     18 C18         -0.9730     1.4140     6.5930 ca         1 G1W      -0.032300
     19 C19         -0.0710     2.1850     7.3030 ca         1 G1W      -0.140000
     20 C20         -0.3980     3.4810     7.6540 ca         1 G1W      -0.029500
     21 C21         -1.6250     4.0070     7.2960 ca         1 G1W      -0.300500
     22 C22         -2.5260     3.2350     6.5870 ca         1 G1W      -0.029500
     23 C23         -2.1990     1.9400     6.2310 ca         1 G1W      -0.140000
     24 S24         -2.0410     5.6580     7.7450 sy         1 G1W       1.196300
     25 F25          2.0610    -0.0000    -1.1730 f          1 G1W      -0.131900
     26 C26          1.4180    -0.0010     4.7920 cd         1 G1W       0.153800
     27 C27          2.2040    -0.0010     6.0470 c          1 G1W       0.641300
     28 C28         -1.4590     6.6660     6.3520 c3         1 G1W      -0.210600
     29 C29         -1.7660     8.1400     6.6260 c3         1 G1W       0.165400
     30 O30         -1.3070     8.9330     5.5290 oh         1 G1W      -0.600800
     31 O31          2.7320     1.0220     6.4330 o          1 G1W      -0.517000
     32 O32          2.3340    -1.1370     6.7600 os         1 G1W      -0.414900
     33 C33          3.1190    -1.0630     7.9790 c3         1 G1W       0.136700
     34 O34         -3.4610     5.6600     7.8010 o          1 G1W      -0.619800
     35 O35         -1.2600     5.9140     8.9040 o          1 G1W      -0.619800
     36 H1          -0.5370    -0.0000    -0.9410 ha         1 G1W       0.153000
     37 H2           3.1790    -0.0000     1.1770 ha         1 G1W       0.162000
     38 H3          -1.7760     0.0000     1.1690 ha         1 G1W       0.165000
     39 H4           3.6360    -2.1410     3.6760 ha         1 G1W       0.150500
     40 H5           6.1000    -2.1360     3.6700 ha         1 G1W       0.142000
     41 H6           7.3300    -0.0030     3.5860 ha         1 G1W       0.138000
     42 H7           6.1020     2.1320     3.5020 ha         1 G1W       0.142000
     43 H8           3.6370     2.1390     3.5040 ha         1 G1W       0.150500
     44 H9           0.0500    -0.4190     6.9540 hc         1 G1W       0.070700
     45 H10         -1.5200    -0.5980     6.1590 hc         1 G1W       0.070700
     46 H11          0.8910     1.7730     7.5830 ha         1 G1W       0.150500
     47 H12          0.3090     4.0860     8.2100 ha         1 G1W       0.150500
     48 H13         -3.4870     3.6470     6.3050 ha         1 G1W       0.150500
     49 H14         -2.9050     1.3360     5.6750 ha         1 G1W       0.150500
     50 H15         -1.9630     6.3540     5.4460 h1         1 G1W       0.110700
     51 H16         -0.3900     6.5350     6.2340 h1         1 G1W       0.110700
     52 H17         -2.8350     8.2710     6.7440 h1         1 G1W       0.033700
     53 H18         -1.2610     8.4520     7.5330 h1         1 G1W       0.033700
     54 H19         -1.5070     9.8400     5.6920 ho         1 G1W       0.408000
     55 H20          2.6090    -0.4330     8.6990 h1         1 G1W       0.055367
     56 H21          3.2400    -2.0570     8.3920 h1         1 G1W       0.055367
     57 H22          4.0920    -0.6430     7.7580 h1         1 G1W       0.055367
@<TRIPOS>BOND
     1    13    12 ar
     2    13    14 ar
     3    12    11 ar
     4    14    15 ar
     5    11    10 ar
     6    25     2 1
     7    15    10 ar
     8    10     9 1
     9     3     2 ar
    10     3     4 ar
    11     2     1 ar
    12     9     4 1
    13     9    26 1
    14     4     5 ar
    15     1     6 ar
    16    31    27 2
    17    33    32 1
    18    27    26 1
    19    27    32 1
    20    26    16 2
    21     5     6 ar
    22     5     7 1
    23    16     7 1
    24    16    17 1
    25     7     8 2
    26    17    18 1
    27    18    23 ar
    28    18    19 ar
    29    23    22 ar
    30    19    20 ar
    31    22    21 ar
    32    20    21 ar
    33    21    24 1
    34    34    24 2
    35    24    35 2
    36    24    28 1
    37    28    29 1
    38    29    30 1
    39     1    36 1
    40     3    37 1
    41     6    38 1
    42    11    39 1
    43    12    40 1
    44    13    41 1
    45    14    42 1
    46    15    43 1
    47    17    44 1
    48    17    45 1
    49    19    46 1
    50    20    47 1
    51    22    48 1
    52    23    49 1
    53    28    50 1
    54    28    51 1
    55    29    52 1
    56    29    53 1
    57    30    54 1
    58    33    55 1
    59    33    56 1
    60    33    57 1
@<TRIPOS>SUBSTRUCTURE
     1 G1W         1 TEMP              0 ****  ****    0 ROOT
