@<TRIPOS>MOLECULE
molecule
   43    46     1     0     0
SMALL
bcc


@<TRIPOS>ATOM
      1 O01          0.0000     0.0000     0.0000 o          1 G1Y      -0.612100
      2 C02          1.2150     0.0000     0.0000 c          1 G1Y       0.671700
      3 C03          1.9540     0.0000     1.2810 ca         1 G1Y      -0.145600
      4 C04          3.3500     0.0070     1.2840 ca         1 G1Y      -0.086500
      5 C05          4.0330     0.0060     2.4830 ca         1 G1Y      -0.139000
      6 C06          3.3390     0.0000     3.6800 ca         1 G1Y      -0.107000
      7 C07          1.9540    -0.0050     3.6830 ca         1 G1Y      -0.139000
      8 C08          1.2590     0.0010     2.4910 ca         1 G1Y      -0.086500
      9 N09          1.8900    -0.0050    -1.1670 ns         1 G1Y      -0.580900
     10 C10          1.1570    -0.0120    -2.4360 c3         1 G1Y       0.163300
     11 C11          2.1370    -0.0180    -3.5810 ca         1 G1Y      -0.123300
     12 C12          2.5860    -1.2190    -4.0990 ca         1 G1Y      -0.116000
     13 C13          3.4850    -1.2310    -5.1510 ca         1 G1Y      -0.132000
     14 C14          3.9400    -0.0440    -5.6880 ca         1 G1Y      -0.120000
     15 C15          3.4910     1.1700    -5.1690 ca         1 G1Y      -0.096500
     16 C16          3.9750     2.4490    -5.7430 cc         1 G1Y       0.369800
     17 C17          4.7780     2.5860    -6.8290 cd         1 G1Y      -0.233600
     18 N18          4.9760     3.9310    -7.0050 na         1 G1Y      -0.203900
     19 C19          5.6760     4.8840    -7.8770 c3         1 G1Y       0.040300
     20 C20          5.0130     6.2530    -7.6120 c3         1 G1Y      -0.101400
     21 C21          4.4760     6.0690    -6.1740 c3         1 G1Y      -0.097700
     22 C22          4.2940     4.5700    -6.0330 cc         1 G1Y       0.386800
     23 N23          3.6940     3.6830    -5.2820 nd         1 G1Y      -0.677000
     24 C24          2.5800     1.1760    -4.1140 ca         1 G1Y      -0.087000
     25 H1           3.8950     0.0110     0.3480 ha         1 G1Y       0.142000
     26 H2           5.1170     0.0110     2.4880 ha         1 G1Y       0.133500
     27 H3           3.8800    -0.0020     4.6180 ha         1 G1Y       0.131000
     28 H4           1.4160    -0.0070     4.6220 ha         1 G1Y       0.133500
     29 H5           0.1760    -0.0030     2.4940 ha         1 G1Y       0.142000
     30 H6           2.8900     0.0140    -1.1670 hn         1 G1Y       0.319500
     31 H7           0.5340     0.8720    -2.4980 h1         1 G1Y       0.060200
     32 H8           0.5350    -0.8970    -2.4890 h1         1 G1Y       0.060200
     33 H9           2.2320    -2.1530    -3.6810 ha         1 G1Y       0.133000
     34 H10          3.8330    -2.1750    -5.5530 ha         1 G1Y       0.131000
     35 H11          4.6440    -0.0550    -6.5110 ha         1 G1Y       0.127000
     36 H12          5.3280     1.7920    -7.3190 h4         1 G1Y       0.174000
     37 H13          5.5480     4.6030    -8.9160 h1         1 G1Y       0.060700
     38 H14          5.7700     7.0280    -7.6180 hc         1 G1Y       0.069700
     39 H15          3.5100     6.5530    -6.0930 hc         1 G1Y       0.074700
     40 H17          2.2280     2.1160    -3.7070 ha         1 G1Y       0.158000
     41 H18          6.7280     4.9230    -7.6200 h1         1 G1Y       0.060700
     42 H19          4.1820     6.3900    -8.2930 hc         1 G1Y       0.069700
     43 H20          5.2280     6.4020    -5.4690 hc         1 G1Y       0.074700
@<TRIPOS>BOND
     1    20    19 1
     2    20    21 1
     3    19    18 1
     4    21    22 1
     5    18    22 1
     6    18    17 1
     7    22    23 2
     8    17    16 2
     9    23    16 1
    10    16    15 1
    11    14    15 ar
    12    14    13 ar
    13    15    24 ar
    14    13    12 ar
    15    24    11 ar
    16    12    11 ar
    17    11    10 1
    18    10     9 1
    19     1     2 2
    20     2     9 1
    21     2     3 1
    22     3     8 ar
    23     3     4 ar
    24     8     7 ar
    25     4     5 ar
    26     7     6 ar
    27     5     6 ar
    28     4    25 1
    29     5    26 1
    30     6    27 1
    31     7    28 1
    32     8    29 1
    33     9    30 1
    34    10    31 1
    35    10    32 1
    36    12    33 1
    37    13    34 1
    38    14    35 1
    39    17    36 1
    40    19    37 1
    41    20    38 1
    42    21    39 1
    43    24    40 1
    44    19    41 1
    45    20    42 1
    46    21    43 1
@<TRIPOS>SUBSTRUCTURE
     1 G1Y         1 TEMP              0 ****  ****    0 ROOT
