@<TRIPOS>MOLECULE
G1Y
   43    46     1     0     0
SMALL
bcc


@<TRIPOS>ATOM
      1 O01          0.0000     0.0000     0.0000 o          1 G1Y      -0.653100
      2 C02          1.2150     0.0000     0.0000 c          1 G1Y       0.594700
      3 C03          1.9540     0.0000     1.2810 ca         1 G1Y      -0.154600
      4 C04          3.3500     0.0070     1.2840 ca         1 G1Y      -0.060000
      5 C05          4.0330     0.0060     2.4830 ca         1 G1Y      -0.113000
      6 C06          3.3390     0.0000     3.6800 ca         1 G1Y      -0.080000
      7 C07          1.9540    -0.0050     3.6830 ca         1 G1Y      -0.113000
      8 C08          1.2590     0.0010     2.4910 ca         1 G1Y      -0.060000
      9 N09          1.8900    -0.0050    -1.1670 ns         1 G1Y      -0.197900
     10 C10          1.1570    -0.0120    -2.4360 c3         1 G1Y       0.114300
     11 C11          2.1370    -0.0180    -3.5810 ca         1 G1Y      -0.131300
     12 C12          2.5860    -1.2190    -4.0990 ca         1 G1Y      -0.091000
     13 C13          3.4850    -1.2310    -5.1510 ca         1 G1Y      -0.104000
     14 C14          3.9400    -0.0440    -5.6880 ca         1 G1Y      -0.099000
     15 C15          3.4910     1.1700    -5.1690 ca         1 G1Y      -0.093500
     16 C16          3.9750     2.4490    -5.7430 cc         1 G1Y       0.348800
     17 C17          4.7780     2.5860    -6.8290 cd         1 G1Y      -0.390600
     18 N18          4.9760     3.9310    -7.0050 na         1 G1Y       0.258100
     19 C19          5.6760     4.8840    -7.8770 c3         1 G1Y      -0.032700
     20 C20          5.0130     6.2530    -7.6120 c3         1 G1Y      -0.037400
     21 C21          4.4760     6.0690    -6.1740 c3         1 G1Y      -0.025700
     22 C22          4.2940     4.5700    -6.0330 cd         1 G1Y       0.186800
     23 N23          3.6940     3.6830    -5.2820 nc         1 G1Y      -0.583000
     24 C24          2.5800     1.1760    -4.1140 ca         1 G1Y      -0.065000
     25 H1           3.8950     0.0110     0.3480 ha         1 G1Y       0.115000
     26 H2           5.1170     0.0110     2.4880 ha         1 G1Y       0.105000
     27 H3           3.8800    -0.0020     4.6180 ha         1 G1Y       0.101000
     28 H4           1.4160    -0.0070     4.6220 ha         1 G1Y       0.105000
     29 H5           0.1760    -0.0030     2.4940 ha         1 G1Y       0.115000
     30 H6           2.8900     0.0140    -1.1670 hn         1 G1Y       0.183500
     31 H7           0.5340     0.8720    -2.4980 h1         1 G1Y       0.030200
     32 H8           0.5350    -0.8970    -2.4890 h1         1 G1Y       0.030200
     33 H9           2.2320    -2.1530    -3.6810 ha         1 G1Y       0.107000
     34 H10          3.8330    -2.1750    -5.5530 ha         1 G1Y       0.103000
     35 H11          4.6440    -0.0550    -6.5110 ha         1 G1Y       0.104000
     36 H12          5.3280     1.7920    -7.3190 h4         1 G1Y       0.153000
     37 H13          5.5480     4.6030    -8.9160 h1         1 G1Y       0.029700
     38 H14          5.7700     7.0280    -7.6180 hc         1 G1Y       0.036200
     39 H15          3.5100     6.5530    -6.0930 hc         1 G1Y       0.035700
     40 H17          2.2280     2.1160    -3.7070 ha         1 G1Y       0.130000
     41 H18          6.7280     4.9230    -7.6200 h1         1 G1Y       0.029700
     42 H19          4.1820     6.3900    -8.2930 hc         1 G1Y       0.036200
     43 H20          5.2280     6.4020    -5.4690 hc         1 G1Y       0.035700
@<TRIPOS>BOND
     1     1     2 2   
     2     2     3 1   
     3     2     9 1   
     4     3     4 ar  
     5     3     8 ar  
     6     4     5 ar  
     7     4    25 1   
     8     5     6 ar  
     9     5    26 1   
    10     6     7 ar  
    11     6    27 1   
    12     7     8 ar  
    13     7    28 1   
    14     8    29 1   
    15     9    10 1   
    16     9    30 1   
    17    10    11 1   
    18    10    31 1   
    19    10    32 1   
    20    11    12 ar  
    21    11    24 ar  
    22    12    13 ar  
    23    12    33 1   
    24    13    14 ar  
    25    13    34 1   
    26    14    15 ar  
    27    14    35 1   
    28    15    16 1   
    29    15    24 ar  
    30    16    17 2   
    31    16    23 1   
    32    17    18 1   
    33    17    36 1   
    34    18    19 1   
    35    18    22 1   
    36    19    20 1   
    37    19    37 1   
    38    19    41 1   
    39    20    21 1   
    40    20    38 1   
    41    20    42 1   
    42    21    22 1   
    43    21    39 1   
    44    21    43 1   
    45    22    23 2   
    46    24    40 1   
@<TRIPOS>SUBSTRUCTURE
     1 G1Y         1 TEMP              0 ****  ****    0 ROOT
