@<TRIPOS>MOLECULE
molecule
   37    39     1     0     0
SMALL
bcc


@<TRIPOS>ATOM
      1 N1           0.0000     0.0000     0.0000 nh         1 G1Z      -0.726600
      2 N3          -2.0250    -0.9890    -0.7160 nc         1 G1Z      -0.809100
      3 C4           1.3320     1.1770     2.1990 c3         1 G1Z      -0.091400
      4 C5           1.9610     0.0000     1.4510 c3         1 G1Z      -0.088900
      5 C6           1.4680     0.0000     0.0000 c3         1 G1Z       0.221300
      6 C7          -0.6980    -0.9510    -0.6950 cd         1 G1Z       0.743100
      7 C8          -2.7880    -1.8520    -1.3460 c          1 G1Z       0.731100
      8 C10         -1.0590    -3.2900    -2.4110 ca         1 G1Z       0.061900
      9 C13         -2.9870    -4.8740    -3.5630 ca         1 G1Z      -0.199300
     10 F3          -3.4830    -6.5660    -5.1110 f          1 G1Z      -0.222633
     11 C1          -4.0560    -5.7210    -4.2050 c3         1 G1Z       0.699200
     12 F1          -4.7010    -6.4450    -3.2450 f          1 G1Z      -0.222633
     13 F2          -4.9520    -4.9150    -4.8460 f          1 G1Z      -0.222633
     14 C12         -3.3810    -3.8110    -2.7820 ca         1 G1Z      -0.019000
     15 C11         -2.4170    -2.9900    -2.1840 ca         1 G1Z      -0.178600
     16 O1          -3.9300    -1.5650    -1.2170 o          1 G1Z      -0.525100
     17 S            0.0890    -2.1970    -1.6130 ss         1 G1Z      -0.205100
     18 C9          -0.6680    -4.3560    -3.1960 ca         1 G1Z       0.210600
     19 N2           0.7430    -4.6090    -3.4260 nu         1 G1Z      -0.698100
     20 O2           1.3070    -5.8380    -3.0470 oh         1 G1Z      -0.338300
     21 C14         -1.6460    -5.1540    -3.7780 ca         1 G1Z      -0.060000
     22 C2          -0.7070     1.0370     0.7640 c3         1 G1Z       0.221300
     23 C3          -0.1910     1.0250     2.2060 c3         1 G1Z      -0.088900
     24 H1           1.5970     1.1070     3.2470 hc         1 G1Z       0.046700
     25 H2           1.7270     2.1010     1.7920 hc         1 G1Z       0.046700
     26 H3           3.0260     0.1740     1.3570 hc         1 G1Z       0.056950
     27 H4           1.7970    -0.9050     2.0230 hc         1 G1Z       0.056950
     28 H5           1.8180     0.6500    -0.7930 h1         1 G1Z       0.070200
     29 H6           1.8180    -1.0080    -0.1860 h1         1 G1Z       0.070200
     30 H7          -4.4250    -3.6910    -2.5180 ha         1 G1Z       0.173000
     31 H8           1.3070    -3.9200    -3.8850 hn         1 G1Z       0.460800
     32 H9           2.2250    -5.8430    -3.2650 ho         1 G1Z       0.403000
     33 H10         -1.3580    -6.0610    -4.2950 ha         1 G1Z       0.169000
     34 H11         -1.7690     0.8230     0.7430 h1         1 G1Z       0.070200
     35 H12         -0.5280     1.9980     0.2980 h1         1 G1Z       0.070200
     36 H13         -0.4530     0.1670     2.8120 hc         1 G1Z       0.056950
     37 H14         -0.6290     1.9160     2.6400 hc         1 G1Z       0.056950
@<TRIPOS>BOND
     1    10    11 1
     2    13    11 1
     3    16     7 2
     4    11    12 1
     5    11     9 1
     6    14     9 ar
     7    14    15 ar
     8     9    21 ar
     9     7    15 1
    10     7     2 1
    11    15     8 ar
    12     2     6 2
    13    21    18 ar
    14     8    18 ar
    15     8    17 1
    16     6     1 1
    17     6    17 1
    18    18    19 1
    19     5     4 1
    20     5     1 1
    21     4     3 1
    22     1    22 1
    23    19    20 1
    24     3    23 1
    25    22    23 1
    26     3    24 1
    27     3    25 1
    28     4    26 1
    29     4    27 1
    30     5    28 1
    31     5    29 1
    32    14    30 1
    33    19    31 1
    34    20    32 1
    35    21    33 1
    36    22    34 1
    37    22    35 1
    38    23    36 1
    39    23    37 1
@<TRIPOS>SUBSTRUCTURE
     1 G1Z         1 TEMP              0 ****  ****    0 ROOT
