@<TRIPOS>MOLECULE
molecule
   47    47     1     0     0
SMALL
bcc


@<TRIPOS>ATOM
      1 C1           0.0000     0.0000     0.0000 c          1 G20       0.872800
      2 O1A          1.3480     0.0000     0.0000 o          1 G20      -0.788300
      3 O1B         -0.6080     0.0000     1.0520 o          1 G20      -0.788300
      4 C2          -0.7360    -0.0010    -1.2770 ce         1 G20       0.106900
      5 C3          -2.0540    -0.0020    -1.2020 c2         1 G20      -0.386200
      6 C4          -2.9280     0.0150    -2.4290 c3         1 G20       0.287700
      7 C5          -2.0440    -0.2700    -3.6520 c3         1 G20       0.059700
      8 N5          -2.7370     0.1440    -4.8740 ns         1 G20      -0.598900
      9 C10         -2.7260    -0.6550    -5.9590 c          1 G20       0.651100
     10 O10         -2.2020    -1.7480    -5.9010 o          1 G20      -0.594100
     11 C11         -3.3630    -0.1910    -7.2430 c3         1 G20      -0.166100
     12 C6          -0.7520     0.5370    -3.4810 c3         1 G20       0.050100
     13 O6           0.0000    -0.0010    -2.4020 os         1 G20      -0.210900
     14 C7           0.0600     0.4610    -4.7490 c          1 G20       0.669100
     15 O7           0.9570    -0.3500    -4.8440 o          1 G20      -0.545100
     16 N8          -0.2100     1.2920    -5.7740 n          1 G20      -0.499800
     17 C81         -1.2080     2.3520    -5.6130 c3         1 G20       0.092300
     18 C9           0.4940     1.1350    -7.0490 c3         1 G20       0.115000
     19 C91          1.7690     1.9800    -7.0350 c3         1 G20      -0.106400
     20 C92          2.5040     1.8160    -8.3670 c3         1 G20      -0.091100
     21 NE          -3.9620    -1.0160    -2.3130 nu         1 G20      -0.820200
     22 CZ          -5.1710    -0.7150    -1.7310 c2         1 G20       0.689100
     23 NH1         -5.3980     0.4870    -1.2840 n2         1 G20      -0.795100
     24 NH2         -6.1420    -1.6820    -1.6220 nz         1 G20      -0.808600
     25 H3          -2.5220    -0.0160    -0.2260 ha         1 G20       0.179000
     26 H4          -3.3880     0.9910    -2.5330 h1         1 G20       0.077700
     27 H5          -1.8120    -1.3270    -3.6950 h1         1 G20       0.118700
     28 HN5         -3.2630     0.9960    -4.8860 hn         1 G20       0.313500
     29 H111        -4.2550    -0.7750    -7.4350 hc         1 G20       0.060033
     30 H112        -3.6280     0.8560    -7.1580 hc         1 G20       0.060033
     31 H113        -2.6640    -0.3210    -8.0600 hc         1 G20       0.060033
     32 H6          -1.0000     1.5690    -3.2660 h1         1 G20       0.060700
     33 H811        -1.9050     2.3200    -6.4410 h1         1 G20       0.033700
     34 H812        -0.7120     3.3150    -5.5950 h1         1 G20       0.033700
     35 H813        -1.7440     2.2040    -4.6830 h1         1 G20       0.033700
     36 H91          0.7530     0.0930    -7.1930 h1         1 G20       0.054700
     37 H92         -0.1470     1.4620    -7.8590 h1         1 G20       0.054700
     38 H911         2.4110     1.6520    -6.2260 hc         1 G20       0.054700
     39 H912         1.5100     3.0220    -6.8910 hc         1 G20       0.054700
     40 H921         2.7560     0.7730    -8.5150 hc         1 G20       0.034033
     41 H922         1.8650     2.1510    -9.1750 hc         1 G20       0.034033
     42 H923         3.4100     2.4090    -8.3540 hc         1 G20       0.034033
     43 HNE         -3.8130    -1.9200    -2.7140 hn         1 G20       0.451800
     44 HN1         -6.2770     0.7080    -0.8600 hn         1 G20       0.422400
     45 HN21        -6.5450    -1.6490    -0.7060 hn         1 G20       0.459467
     46 HN22        -5.7370    -2.5840    -1.7750 hn         1 G20       0.459467
     47 HH23        -6.8550    -1.5170    -2.3050 hn         1 G20       0.459467
@<TRIPOS>BOND
     1     1     2 1
     2     1     3 1
     3     1     4 1
     4     4     5 2
     5     4    13 1
     6     5     6 1
     7     5    25 1
     8     6     7 1
     9     6    21 1
    10     6    26 1
    11     7     8 1
    12     7    12 1
    13     7    27 1
    14     8     9 1
    15     8    28 1
    16     9    10 2
    17     9    11 1
    18    11    29 1
    19    11    30 1
    20    11    31 1
    21    12    13 1
    22    12    14 1
    23    12    32 1
    24    14    15 2
    25    14    16 1
    26    16    17 1
    27    16    18 1
    28    17    33 1
    29    17    34 1
    30    17    35 1
    31    18    19 1
    32    18    36 1
    33    18    37 1
    34    19    20 1
    35    19    38 1
    36    19    39 1
    37    20    40 1
    38    20    41 1
    39    20    42 1
    40    21    22 1
    41    21    43 1
    42    22    23 2
    43    22    24 1
    44    23    44 1
    45    24    45 1
    46    24    46 1
    47    47    24 1
@<TRIPOS>SUBSTRUCTURE
     1 G20         1 TEMP              0 ****  ****    0 ROOT
