@<TRIPOS>MOLECULE
molecule
   57    58     1     0     0
SMALL
bcc


@<TRIPOS>ATOM
      1 C1           0.0000     0.0000     0.0000 c          1 G21       0.888600
      2 O1A         -0.6710     1.0040     0.5870 o          1 G21      -0.789300
      3 O1B         -0.6040    -0.9030    -0.5280 o          1 G21      -0.789300
      4 C2           1.5060     0.0000     0.0000 c3         1 G21      -0.011900
      5 C3           2.0140     0.0000     1.4440 c3         1 G21      -0.116400
      6 C4           3.5460     0.0330     1.4350 c3         1 G21       0.073500
      7 C5           4.0540    -1.1200     0.5660 c3         1 G21       0.097700
      8 N5           3.7150    -2.3970     1.1970 ns         1 G21      -0.575900
      9 C10          4.5460    -3.4520     1.0740 c          1 G21       0.664100
     10 O10          5.6160    -3.3190     0.5190 o          1 G21      -0.609100
     11 C11          4.1430    -4.7960     1.6230 c3         1 G21      -0.167100
     12 C6           3.3950    -1.0350    -0.8120 c3         1 G21       0.025100
     13 O6           1.9810    -1.1620    -0.6780 os         1 G21      -0.328600
     14 C7           3.7210     0.2930    -1.4440 c          1 G21       0.639100
     15 O7           4.6140     0.9770    -0.9910 o          1 G21      -0.731100
     16 N8           3.0210     0.7210    -2.5120 n          1 G21      -0.426800
     17 C81          3.2000     2.0880    -3.0050 c3         1 G21       0.086000
     18 C82          2.2080     3.0190    -2.3040 c3         1 G21      -0.050100
     19 CG           2.3920     4.4250    -2.8120 ca         1 G21      -0.089300
     20 CD1          1.6750     4.8650    -3.9070 ca         1 G21      -0.121000
     21 CD2          3.2760     5.2780    -2.1770 ca         1 G21      -0.121000
     22 CE1          1.8440     6.1560    -4.3720 ca         1 G21      -0.122500
     23 CE2          3.4490     6.5670    -2.6460 ca         1 G21      -0.122500
     24 CZ           2.7310     7.0060    -3.7420 ca         1 G21      -0.123000
     25 C9           2.0790    -0.1810    -3.1800 c3         1 G21       0.057000
     26 C91          2.8360    -1.0580    -4.1800 c3         1 G21      -0.103400
     27 C92          1.8390    -1.9070    -4.9690 c3         1 G21      -0.090100
     28 NE           4.0070     1.3140     0.8850 nz         1 G21      -0.822600
     29 H2           1.8710     0.8850    -0.5080 h1         1 G21       0.018700
     30 H31          1.6740    -0.8980     1.9460 hc         1 G21       0.095200
     31 H32          1.6360     0.8750     1.9600 hc         1 G21       0.095200
     32 H4           3.9150    -0.0870     2.4460 hx         1 G21       0.095700
     33 H5           5.1290    -1.0400     0.4560 h1         1 G21       0.101700
     34 HN5          2.8890    -2.4740     1.7570 hn         1 G21       0.336500
     35 H111         4.9240    -5.5180     1.4190 hc         1 G21       0.069700
     36 H112         3.9930    -4.7180     2.6930 hc         1 G21       0.069700
     37 H113         3.2220    -5.1170     1.1520 hc         1 G21       0.069700
     38 H6           3.7680    -1.8370    -1.4370 h1         1 G21       0.125700
     39 H811         3.0240     2.1130    -4.0740 h1         1 G21       0.071700
     40 H812         4.2120     2.4170    -2.7980 h1         1 G21       0.071700
     41 H821         2.3850     2.9950    -1.2350 hc         1 G21       0.058200
     42 H822         1.1970     2.6900    -2.5100 hc         1 G21       0.058200
     43 HD1          0.9800     4.1980    -4.4010 ha         1 G21       0.126500
     44 HD2          3.8390     4.9330    -1.3180 ha         1 G21       0.126500
     45 HE1          1.2810     6.4990    -5.2320 ha         1 G21       0.132500
     46 HE2          4.1430     7.2340    -2.1500 ha         1 G21       0.132500
     47 HZ           2.8650     8.0170    -4.1080 ha         1 G21       0.133000
     48 H91          1.3320     0.4020    -3.7040 h1         1 G21       0.102200
     49 H92          1.5950    -0.8090    -2.4420 h1         1 G21       0.102200
     50 H911         3.3940    -0.4290    -4.8620 hc         1 G21       0.040700
     51 H912         3.5190    -1.7070    -3.6460 hc         1 G21       0.040700
     52 H921         2.3740    -2.5190    -5.6850 hc         1 G21       0.042700
     53 H922         1.1480    -1.2580    -5.4940 hc         1 G21       0.042700
     54 H923         1.2890    -2.5450    -4.2880 hc         1 G21       0.042700
     55 HNE1         3.4270     1.5740     0.1120 hn         1 G21       0.459133
     56 HNE2         4.9540     1.2220     0.5740 hn         1 G21       0.459133
     57 HE3          3.9560     2.0190     1.5930 hn         1 G21       0.459133
@<TRIPOS>BOND
     1     1     2 1
     2     1     3 1
     3     1     4 1
     4     4     5 1
     5     4    13 1
     6     4    29 1
     7     5     6 1
     8     5    30 1
     9     5    31 1
    10     6     7 1
    11     6    28 1
    12     6    32 1
    13     7     8 1
    14     7    12 1
    15     7    33 1
    16     8     9 1
    17     8    34 1
    18     9    10 2
    19     9    11 1
    20    11    35 1
    21    11    36 1
    22    11    37 1
    23    12    13 1
    24    12    14 1
    25    12    38 1
    26    14    15 2
    27    14    16 1
    28    16    17 1
    29    16    25 1
    30    17    18 1
    31    17    39 1
    32    17    40 1
    33    18    19 1
    34    18    41 1
    35    18    42 1
    36    19    20 ar
    37    19    21 ar
    38    20    22 ar
    39    20    43 1
    40    21    23 ar
    41    21    44 1
    42    22    24 ar
    43    22    45 1
    44    23    24 ar
    45    23    46 1
    46    24    47 1
    47    25    26 1
    48    25    48 1
    49    25    49 1
    50    26    27 1
    51    26    50 1
    52    26    51 1
    53    27    52 1
    54    27    53 1
    55    27    54 1
    56    28    55 1
    57    28    56 1
    58    57    28 1
@<TRIPOS>SUBSTRUCTURE
     1 G21         1 TEMP              0 ****  ****    0 ROOT
