@<TRIPOS>MOLECULE
molecule
   57    59     1     0     0
SMALL
bcc


@<TRIPOS>ATOM
      1 C1           0.0000     0.0000     0.0000 c3         1 G23       0.046500
      2 C2           0.2430     0.5100     2.3920 c3         1 G23       0.271600
      3 C3          -0.0650    -0.0690     3.7740 c3         1 G23       0.067700
      4 C4          -1.4520     0.3430     4.1930 c          1 G23       0.659100
      5 C7          -0.4770     1.2910    -0.6150 c          1 G23       0.869600
      6 C8           1.5440     0.0000     0.0000 c3         1 G23       0.086100
      7 C9          -3.1090     2.0520     4.7200 c3         1 G23       0.163300
      8 C11          1.2660    -3.6550     3.9130 c3         1 G23      -0.110100
      9 C12          3.0390    -4.3530     5.5350 ca         1 G23      -0.108000
     10 C13          2.6720    -4.0940     4.2280 ca         1 G23      -0.051300
     11 C14          3.5950    -4.2420     3.2090 ca         1 G23      -0.108000
     12 C15          4.8860    -4.6410     3.4980 ca         1 G23      -0.132000
     13 C16          5.2520    -4.9000     4.8060 ca         1 G23      -0.136000
     14 C17          4.3280    -4.7570     5.8240 ca         1 G23      -0.132000
     15 C18         -2.9640     5.5990     6.0010 ca         1 G23      -0.134000
     16 C19         -3.3410     6.3140     4.8780 ca         1 G23      -0.127000
     17 C20         -3.6420     5.6480     3.7040 ca         1 G23      -0.134000
     18 C21         -3.5670     4.2690     3.6540 ca         1 G23      -0.106500
     19 C22         -3.1900     3.5550     4.7760 ca         1 G23      -0.115300
     20 C23         -2.8930     4.2200     5.9500 ca         1 G23      -0.106500
     21 N1          -0.5930    -0.1300     1.3330 n7         1 G23      -0.814200
     22 N2           0.0140    -1.5310     3.7190 ns         1 G23      -0.544900
     23 N3          -1.7590     1.6510     4.3120 ns         1 G23      -0.576900
     24 O1          -2.2920    -0.5000     4.4240 o          1 G23      -0.628100
     25 O2           2.1700    -1.5010     4.2380 o          1 G23      -0.600100
     26 O3          -0.7660     2.2270     0.0920 o          1 G23      -0.846300
     27 O4          -0.5800     1.4010    -1.9490 o          1 G23      -0.846300
     28 S1           1.9190     0.0000     1.8050 ss         1 G23      -0.385200
     29 H1          -0.3430    -0.8270    -0.6100 h1         1 G23       0.076700
     30 H2           0.1360     1.5880     2.3750 h2         1 G23       0.080700
     31 H3           0.6550     0.3050     4.4910 h1         1 G23       0.093700
     32 H51          1.7130     2.1360    -0.1620 hc         1 G23       0.042867
     33 H52          3.1740     1.2520    -0.6250 hc         1 G23       0.042867
     34 H53          1.7770     1.2810    -1.7090 hc         1 G23       0.042867
     35 H61          2.0310    -1.1520    -1.7480 hc         1 G23       0.042867
     36 H62          3.1250    -1.4040    -0.3820 hc         1 G23       0.042867
     37 H63          1.5070    -2.1180    -0.3620 hc         1 G23       0.042867
     38 H91         -3.8290     1.6780     4.0020 h1         1 G23       0.054700
     39 H92         -3.3270     1.6420     5.6980 h1         1 G23       0.054700
     40 H111         0.5830    -4.0810     4.6380 hc         1 G23       0.064200
     41 H112         0.9950    -3.9950     2.9200 hc         1 G23       0.064200
     42 H14          3.3070    -4.0390     2.1840 ha         1 G23       0.132000
     43 H15          5.6100    -4.7550     2.7000 ha         1 G23       0.121000
     44 H16          6.2640    -5.2150     5.0320 ha         1 G23       0.117000
     45 H17          4.6150    -4.9600     6.8490 ha         1 G23       0.121000
     46 H19         -3.3980     7.3950     4.9180 ha         1 G23       0.122000
     47 H20         -3.9380     6.2070     2.8250 ha         1 G23       0.128000
     48 H21         -3.8030     3.7480     2.7340 ha         1 G23       0.140500
     49 H23         -2.5980     3.6610     6.8300 ha         1 G23       0.140500
     50 HN1         -1.5050     0.2820     1.3340 hn         1 G23       0.369800
     51 HN2         -0.8110    -2.0700     3.5440 hn         1 G23       0.334500
     52 HN3         -1.0520     2.3450     4.1730 hn         1 G23       0.329500
     53 C5           2.0920     1.2590    -0.6730 c3         1 G23      -0.073600
     54 C6           2.0920    -1.2600    -0.6720 c3         1 G23      -0.073600
     55 C10          1.1840    -2.1510     3.9690 c          1 G23       0.667100
     56 H12          2.3150    -4.2420     6.3330 ha         1 G23       0.132000
     57 H18         -2.7290     6.1210     6.9210 ha         1 G23       0.128000
@<TRIPOS>BOND
     1     1     5 1
     2     1     6 1
     3     1    21 1
     4     1    29 1
     5     2     3 1
     6     2    21 1
     7     2    28 1
     8     2    30 1
     9     3     4 1
    10     3    22 1
    11     3    31 1
    12     4    23 1
    13     4    24 2
    14    53     6 1
    15    53    32 1
    16    53    33 1
    17    53    34 1
    18    54     6 1
    19    54    35 1
    20    54    36 1
    21    54    37 1
    22     5    26 1
    23     5    27 1
    24     6    28 1
    25     7    19 1
    26     7    23 1
    27     7    38 1
    28     7    39 1
    29    55     8 1
    30    55    22 1
    31    55    25 2
    32     8    10 1
    33     8    40 1
    34     8    41 1
    35     9    10 ar
    36     9    14 ar
    37     9    56 1
    38    10    11 ar
    39    11    12 ar
    40    11    42 1
    41    12    13 ar
    42    12    43 1
    43    13    14 ar
    44    13    44 1
    45    14    45 1
    46    15    16 ar
    47    15    20 ar
    48    15    57 1
    49    16    17 ar
    50    16    46 1
    51    17    18 ar
    52    17    47 1
    53    18    19 ar
    54    18    48 1
    55    19    20 ar
    56    20    49 1
    57    21    50 1
    58    22    51 1
    59    23    52 1
@<TRIPOS>SUBSTRUCTURE
     1 G23         1 TEMP              0 ****  ****    0 ROOT
