@<TRIPOS>MOLECULE
G23
   57    59     1     0     0
SMALL
bcc


@<TRIPOS>ATOM
      1 C1           0.0000     0.0000     0.0000 c3         1 G23      -0.005500
      2 C2           0.2430     0.5100     2.3920 c3         1 G23       0.238600
      3 C3          -0.0650    -0.0690     3.7740 c3         1 G23      -0.030300
      4 C4          -1.4520     0.3430     4.1930 c          1 G23       0.573100
      5 C7          -0.4770     1.2910    -0.6150 c          1 G23       0.964600
      6 C8           1.5440     0.0000     0.0000 c3         1 G23       0.117100
      7 C9          -3.1090     2.0520     4.7200 c3         1 G23       0.112300
      8 C11          1.2660    -3.6550     3.9130 c3         1 G23      -0.041100
      9 C12          3.0390    -4.3530     5.5350 ca         1 G23      -0.084000
     10 C13          2.6720    -4.0940     4.2280 ca         1 G23      -0.049300
     11 C14          3.5950    -4.2420     3.2090 ca         1 G23      -0.084000
     12 C15          4.8860    -4.6410     3.4980 ca         1 G23      -0.106000
     13 C16          5.2520    -4.9000     4.8060 ca         1 G23      -0.115000
     14 C17          4.3280    -4.7570     5.8240 ca         1 G23      -0.106000
     15 C18         -2.9640     5.5990     6.0010 ca         1 G23      -0.106000
     16 C19         -3.3410     6.3140     4.8780 ca         1 G23      -0.101000
     17 C20         -3.6420     5.6480     3.7040 ca         1 G23      -0.106000
     18 C21         -3.5670     4.2690     3.6540 ca         1 G23      -0.078000
     19 C22         -3.1900     3.5550     4.7760 ca         1 G23      -0.123300
     20 C23         -2.8930     4.2200     5.9500 ca         1 G23      -0.078000
     21 N1          -0.5930    -0.1300     1.3330 n7         1 G23      -0.597200
     22 N2           0.0140    -1.5310     3.7190 ns         1 G23      -0.145900
     23 N3          -1.7590     1.6510     4.3120 ns         1 G23      -0.181900
     24 O1          -2.2920    -0.5000     4.4240 o          1 G23      -0.670100
     25 O2           2.1700    -1.5010     4.2380 o          1 G23      -0.636100
     26 O3          -0.7660     2.2270     0.0920 o          1 G23      -0.888800
     27 O4          -0.5800     1.4010    -1.9490 o          1 G23      -0.888800
     28 S1           1.9190     0.0000     1.8050 ss         1 G23      -0.443200
     29 H1          -0.3430    -0.8270    -0.6100 h1         1 G23       0.054700
     30 H2           0.1360     1.5880     2.3750 h2         1 G23       0.069700
     31 H3           0.6550     0.3050     4.4910 h1         1 G23       0.069700
     32 H51          1.7130     2.1360    -0.1620 hc         1 G23       0.017200
     33 H52          3.1740     1.2520    -0.6250 hc         1 G23       0.017200
     34 H53          1.7770     1.2810    -1.7090 hc         1 G23       0.017200
     35 H61          2.0310    -1.1520    -1.7480 hc         1 G23       0.017200
     36 H62          3.1250    -1.4040    -0.3820 hc         1 G23       0.017200
     37 H63          1.5070    -2.1180    -0.3620 hc         1 G23       0.017200
     38 H91         -3.8290     1.6780     4.0020 h1         1 G23       0.025700
     39 H92         -3.3270     1.6420     5.6980 h1         1 G23       0.025700
     40 H111         0.5830    -4.0810     4.6380 hc         1 G23       0.028700
     41 H112         0.9950    -3.9950     2.9200 hc         1 G23       0.028700
     42 H14          3.3070    -4.0390     2.1840 ha         1 G23       0.105500
     43 H15          5.6100    -4.7550     2.7000 ha         1 G23       0.094000
     44 H16          6.2640    -5.2150     5.0320 ha         1 G23       0.092000
     45 H17          4.6150    -4.9600     6.8490 ha         1 G23       0.094000
     46 H19         -3.3980     7.3950     4.9180 ha         1 G23       0.097000
     47 H20         -3.9380     6.2070     2.8250 ha         1 G23       0.101500
     48 H21         -3.8030     3.7480     2.7340 ha         1 G23       0.114000
     49 H23         -2.5980     3.6610     6.8300 ha         1 G23       0.114000
     50 HN1         -1.5050     0.2820     1.3340 hn         1 G23       0.278800
     51 HN2         -0.8110    -2.0700     3.5440 hn         1 G23       0.193500
     52 HN3         -1.0520     2.3450     4.1730 hn         1 G23       0.190500
     53 C5           2.0920     1.2590    -0.6730 c3         1 G23       0.001900
     54 C6           2.0920    -1.2600    -0.6720 c3         1 G23       0.001900
     55 C10          1.1840    -2.1510     3.9690 c          1 G23       0.570100
     56 H12          2.3150    -4.2420     6.3330 ha         1 G23       0.105500
     57 H18         -2.7290     6.1210     6.9210 ha         1 G23       0.101500
@<TRIPOS>BOND
     1     1     5 1   
     2     1     6 1   
     3     1    21 1   
     4     1    29 1   
     5     2     3 1   
     6     2    21 1   
     7     2    28 1   
     8     2    30 1   
     9     3     4 1   
    10     3    22 1   
    11     3    31 1   
    12     4    23 1   
    13     4    24 2   
    14     5    26 1   
    15     5    27 1   
    16     6    28 1   
    17     6    53 1   
    18     6    54 1   
    19     7    19 1   
    20     7    23 1   
    21     7    38 1   
    22     7    39 1   
    23     8    10 1   
    24     8    40 1   
    25     8    41 1   
    26     8    55 1   
    27     9    10 ar  
    28     9    14 ar  
    29     9    56 1   
    30    10    11 ar  
    31    11    12 ar  
    32    11    42 1   
    33    12    13 ar  
    34    12    43 1   
    35    13    14 ar  
    36    13    44 1   
    37    14    45 1   
    38    15    16 ar  
    39    15    20 ar  
    40    15    57 1   
    41    16    17 ar  
    42    16    46 1   
    43    17    18 ar  
    44    17    47 1   
    45    18    19 ar  
    46    18    48 1   
    47    19    20 ar  
    48    20    49 1   
    49    21    50 1   
    50    22    51 1   
    51    22    55 1   
    52    23    52 1   
    53    25    55 2   
    54    32    53 1   
    55    33    53 1   
    56    34    53 1   
    57    35    54 1   
    58    36    54 1   
    59    37    54 1   
@<TRIPOS>SUBSTRUCTURE
     1 G23         1 TEMP              0 ****  ****    0 ROOT
