@<TRIPOS>MOLECULE
molecule
   51    53     1     0     0
SMALL
bcc


@<TRIPOS>ATOM
      1 CAF          0.0000     0.0000     0.0000 ca         1 G24      -0.120000
      2 CAB          1.3820     0.0000     0.0000 ca         1 G24      -0.126500
      3 CAC          2.0740     0.0000     1.1970 ca         1 G24      -0.129000
      4 CAD          1.3820     0.0010     2.3940 ca         1 G24      -0.126500
      5 CAH         -0.0000     0.0050     2.3940 ca         1 G24      -0.120000
      6 CAG         -0.6910     0.0000     1.1970 ca         1 G24      -0.078300
      7 CAQ         -2.1980     0.0010     1.1970 c3         1 G24       0.020200
      8 CAP         -2.7000    -1.4200     1.1970 ca         1 G24      -0.093300
      9 CAO         -2.9360    -2.0700     2.3920 ca         1 G24      -0.104000
     10 CBA         -2.9320    -2.0740    -0.0040 ca         1 G24       0.109100
     11 OBC         -2.7060    -1.4340    -1.1810 oh         1 G24      -0.513100
     12 CAZ         -3.3950    -3.3820    -0.0000 ca         1 G24      -0.189000
     13 CAY         -3.6240    -4.0290     1.1980 ca         1 G24      -0.104000
     14 CAN         -3.3920    -3.3750     2.3930 ca         1 G24      -0.076300
     15 CAM         -3.6420    -4.0840     3.6990 c3         1 G24       0.017200
     16 CAL         -2.3710    -4.7460     4.1630 ca         1 G24      -0.144300
     17 CAX         -2.1480    -6.0810     3.8850 ca         1 G24      -0.044300
     18 CBB         -3.1740    -6.8710     3.1140 c3         1 G24      -0.050300
     19 CAW         -0.9830    -6.6910     4.3090 ca         1 G24      -0.201500
     20 CAK         -1.4350    -4.0200     4.8750 ca         1 G24      -0.044300
     21 CAE         -1.6840    -2.5650     5.1810 c3         1 G24      -0.050300
     22 CAJ         -0.2690    -4.6240     5.3010 ca         1 G24      -0.201500
     23 CAV         -0.0400    -5.9620     5.0190 ca         1 G24       0.152100
     24 OAU          1.1080    -6.5600     5.4370 os         1 G24      -0.254900
     25 CAT          1.8620    -5.5650     6.1290 c3         1 G24      -0.006600
     26 CAS          3.1530    -6.1660     6.6220 c          1 G24       0.892600
     27 OAR          4.0280    -5.4110     7.3030 o          1 G24      -0.830300
     28 OAI          3.4010    -7.3280     6.4010 o          1 G24      -0.830300
     29 HAF         -0.5420    -0.0020    -0.9380 ha         1 G24       0.131500
     30 HAB          1.9230    -0.0000    -0.9380 ha         1 G24       0.128000
     31 HAC          3.1570    -0.0020     1.1970 ha         1 G24       0.127000
     32 HAD          1.9240     0.0030     3.3320 ha         1 G24       0.128000
     33 HAH         -0.5420     0.0060     3.3320 ha         1 G24       0.131500
     34 HAQ1        -2.5590     0.5110     0.3120 hc         1 G24       0.051200
     35 HAQ2        -2.5590     0.5110     2.0810 hc         1 G24       0.051200
     36 HAO         -2.7550    -1.5600     3.3310 ha         1 G24       0.142000
     37 HBC         -3.4410    -1.5660    -1.7570 ho         1 G24       0.410000
     38 HAZ         -3.5770    -3.8950    -0.9370 ha         1 G24       0.126000
     39 HAY         -3.9840    -5.0510     1.2010 ha         1 G24       0.132000
     40 HAM1        -4.4110    -4.8350     3.5610 hc         1 G24       0.047200
     41 HAM2        -3.9680    -3.3670     4.4420 hc         1 G24       0.047200
     42 HBB1        -4.1660    -6.6140     3.4650 hc         1 G24       0.037367
     43 HBB2        -3.0010    -7.9300     3.2640 hc         1 G24       0.037367
     44 HBB3        -3.0910    -6.6370     2.0600 hc         1 G24       0.037367
     45 HAW         -0.8080    -7.7370     4.0900 ha         1 G24       0.150000
     46 HAE1        -2.7510    -2.3890     5.2520 hc         1 G24       0.037367
     47 HAE2        -1.2120    -2.3080     6.1210 hc         1 G24       0.037367
     48 HAE3        -1.2690    -1.9530     4.3890 hc         1 G24       0.037367
     49 HAJ          0.4660    -4.0540     5.8570 ha         1 G24       0.150000
     50 HAT1         1.2900    -5.1990     6.9720 h1         1 G24       0.032700
     51 HAT2         2.0800    -4.7440     5.4560 h1         1 G24       0.032700
@<TRIPOS>BOND
     1     1     2 ar
     2     1     6 ar
     3     1    29 1
     4     2     3 ar
     5     2    30 1
     6     3     4 ar
     7     3    31 1
     8     4     5 ar
     9     4    32 1
    10     5     6 ar
    11     5    33 1
    12     6     7 1
    13     7     8 1
    14     7    34 1
    15     7    35 1
    16     8     9 ar
    17     8    10 ar
    18     9    14 ar
    19     9    36 1
    20    10    11 1
    21    10    12 ar
    22    11    37 1
    23    12    13 ar
    24    12    38 1
    25    13    14 ar
    26    13    39 1
    27    14    15 1
    28    15    16 1
    29    15    40 1
    30    15    41 1
    31    16    17 ar
    32    16    20 ar
    33    17    18 1
    34    17    19 ar
    35    18    42 1
    36    18    43 1
    37    18    44 1
    38    19    23 ar
    39    19    45 1
    40    20    21 1
    41    20    22 ar
    42    21    46 1
    43    21    47 1
    44    21    48 1
    45    22    23 ar
    46    22    49 1
    47    23    24 1
    48    24    25 1
    49    25    26 1
    50    25    50 1
    51    25    51 1
    52    26    27 1
    53    26    28 1
@<TRIPOS>SUBSTRUCTURE
     1 G24         1 TEMP              0 ****  ****    0 ROOT
