@<TRIPOS>MOLECULE
G24
   51    53     1     0     0
SMALL
bcc


@<TRIPOS>ATOM
      1 CAF        -0.1450   -0.3360   -0.4980 ca        1 G24     -0.122000
      2 CAB         1.0170   -0.6370   -1.2050 ca        1 G24     -0.132500
      3 CAC         2.1030   -1.2200   -0.5510 ca        1 G24     -0.137000
      4 CAD         2.0220   -1.5040    0.8120 ca        1 G24     -0.132500
      5 CAH         0.8600   -1.2020    1.5220 ca        1 G24     -0.122000
      6 CAG        -0.2300   -0.6130    0.8710 ca        1 G24     -0.075300
      7 CAQ        -1.4690   -0.2690    1.6270 c3        1 G24      0.016200
      8 CAP        -2.5140   -1.3260    1.5170 ca        1 G24     -0.094300
      9 CAO        -2.5300   -2.4010    2.4100 ca        1 G24     -0.082000
     10 CBA        -3.5130   -1.2650    0.5260 ca        1 G24      0.111100
     11 OBC        -3.4850   -0.1900   -0.3400 oh        1 G24     -0.506100
     12 CAZ        -4.4970   -2.2600    0.4350 ca        1 G24     -0.214000
     13 CAY        -4.4850   -3.3210    1.3350 ca        1 G24     -0.107000
     14 CAN        -3.5040   -3.4010    2.3300 ca        1 G24     -0.092300
     15 CAM        -3.5420   -4.5400    3.2940 c3        1 G24      0.025200
     16 CAL        -2.2730   -4.7780    4.0380 ca        1 G24     -0.156300
     17 CAX        -1.2870   -5.6290    3.5000 ca        1 G24     -0.039300
     18 CBB        -1.4790   -6.2700    2.1750 c3        1 G24     -0.051800
     19 CAW        -0.1140   -5.8810    4.2050 ca        1 G24     -0.203500
     20 CAK        -2.0570   -4.1840    5.2920 ca        1 G24     -0.039300
     21 CAE        -3.0690   -3.2760    5.8890 c3        1 G24     -0.051800
     22 CAJ        -0.8810   -4.4360    6.0030 ca        1 G24     -0.203500
     23 CAV         0.0970   -5.2840    5.4650 ca        1 G24      0.169100
     24 OAU         1.2820   -5.5970    6.0690 os        1 G24     -0.285900
     25 CAT         1.5290   -4.9880    7.3420 c3        1 G24     -0.011600
     26 CAS         2.9400   -5.4580    7.8090 c         1 G24      0.926600
     27 OAR         3.9280   -4.7840    7.4180 o         1 G24     -0.819800
     28 OAI         2.9780   -6.4390    8.5970 o         1 G24     -0.819800
     29 HAF        -1.0120    0.1120   -1.0100 ha        1 G24      0.140000
     30 HAB         1.0770   -0.4170   -2.2800 ha        1 G24      0.130000
     31 HAC         3.0190   -1.4580   -1.1090 ha        1 G24      0.124000
     32 HAD         2.8720   -1.9710    1.3310 ha        1 G24      0.130000
     33 HAH         0.7990   -1.4350    2.5970 ha        1 G24      0.140000
     34 HAQ1       -1.8830    0.7010    1.2340 hc        1 G24      0.058700
     35 HAQ2       -1.2160   -0.1150    2.7120 hc        1 G24      0.058700
     36 HAO        -1.7520   -2.4660    3.1910 ha        1 G24      0.160000
     37 HBC        -4.2280   -0.2900   -0.9520 ho        1 G24      0.410000
     38 HAZ        -5.2690   -2.2010   -0.3440 ha        1 G24      0.123000
     39 HAY        -5.2540   -4.1040    1.2610 ha        1 G24      0.126000
     40 HAM1       -3.8250   -5.4760    2.7350 hc        1 G24      0.046200
     41 HAM2       -4.3780   -4.3450    4.0250 hc        1 G24      0.046200
     42 HBB1       -2.2660   -7.0630    2.2410 hc        1 G24      0.038033
     43 HBB2       -0.5330   -6.7450    1.8170 hc        1 G24      0.038033
     44 HBB3       -1.8040   -5.5130    1.4180 hc        1 G24      0.038033
     45 HAW         0.6650   -6.5400    3.7960 ha        1 G24      0.145000
     46 HAE1       -2.6640   -2.7570    6.7920 hc        1 G24      0.038033
     47 HAE2       -3.3830   -2.5010    5.1460 hc        1 G24      0.038033
     48 HAE3       -3.9750   -3.8560    6.1990 hc        1 G24      0.038033
     49 HAJ        -0.7260   -3.9660    6.9850 ha        1 G24      0.145000
     50 HAT1        1.5130   -3.8740    7.2310 h1        1 G24      0.020700
     51 HAT2        0.7470   -5.3220    8.0690 h1        1 G24      0.020700
@<TRIPOS>BOND
     1    1    2 ar  
     2    1    6 ar  
     3    1   29 1   
     4    2    3 ar  
     5    2   30 1   
     6    3    4 ar  
     7    3   31 1   
     8    4    5 ar  
     9    4   32 1   
    10    5    6 ar  
    11    5   33 1   
    12    6    7 1   
    13    7    8 1   
    14    7   34 1   
    15    7   35 1   
    16    8    9 ar  
    17    8   10 ar  
    18    9   14 ar  
    19    9   36 1   
    20   10   11 1   
    21   10   12 ar  
    22   11   37 1   
    23   12   13 ar  
    24   12   38 1   
    25   13   14 ar  
    26   13   39 1   
    27   14   15 1   
    28   15   16 1   
    29   15   40 1   
    30   15   41 1   
    31   16   17 ar  
    32   16   20 ar  
    33   17   18 1   
    34   17   19 ar  
    35   18   42 1   
    36   18   43 1   
    37   18   44 1   
    38   19   23 ar  
    39   19   45 1   
    40   20   21 1   
    41   20   22 ar  
    42   21   46 1   
    43   21   47 1   
    44   21   48 1   
    45   22   23 ar  
    46   22   49 1   
    47   23   24 1   
    48   24   25 1   
    49   25   26 1   
    50   25   50 1   
    51   25   51 1   
    52   26   27 1   
    53   26   28 1   
@<TRIPOS>SUBSTRUCTURE
     1 G24         1 TEMP              0 ****  ****    0 ROOT
