@<TRIPOS>MOLECULE
molecule
   79    82     1     0     0
SMALL
bcc


@<TRIPOS>ATOM
      1 C            0.0000     0.0000     0.0000 c3         1 G26       0.059100
      2 C1           1.5450     0.0000     0.0000 c3         1 G26       0.090500
      3 C2           1.3000    -0.7400     2.3310 c3         1 G26       0.268600
      4 C3           1.6070    -0.3000     3.7630 c3         1 G26       0.071700
      5 C4           2.9940    -0.7510     4.1400 c          1 G26       0.650100
      6 C5          -0.5480    -1.1870    -0.7940 c3         1 G26      -0.083600
      7 C6          -0.5480     1.3200    -0.5460 c3         1 G26      -0.083600
      8 C7           2.0220    -1.2230    -0.7380 c          1 G26       0.632100
      9 C8           2.5910    -2.3930    -2.7980 c3         1 G26       0.120700
     10 C10          1.3910    -3.2690    -3.1620 c3         1 G26       0.119400
     11 C12          1.0760     3.2470     5.1000 c3         1 G26      -0.108100
     12 C13          1.5920     3.8660     7.4700 ca         1 G26      -0.109500
     13 C14          0.6440     3.6440     6.4880 ca         1 G26      -0.067300
     14 C15         -0.6990     3.7890     6.7790 ca         1 G26      -0.109500
     15 C16         -1.0950     4.1470     8.0540 ca         1 G26      -0.126000
     16 C17         -0.1470     4.3700     9.0360 ca         1 G26      -0.125000
     17 C18          1.1970     4.2290     8.7430 ca         1 G26      -0.126000
     18 C19          3.3180    -1.9680    -4.0760 c3         1 G26      -0.049100
     19 C20          6.6680     0.4790    -3.0620 ca         1 G26      -0.129000
     20 C21          6.8170    -0.8920    -3.1570 ca         1 G26      -0.123500
     21 C22          5.7320    -1.6820    -3.4860 ca         1 G26      -0.125000
     22 C23          4.4990    -1.1050    -3.7180 ca         1 G26      -0.084300
     23 C24          4.3510     0.2670    -3.6270 ca         1 G26      -0.125000
     24 C25          5.4350     1.0590    -3.2950 ca         1 G26      -0.123500
     25 C26          7.8970     1.6670     2.3260 ca         1 G26      -0.132000
     26 C27          8.2170     2.6520     3.2410 ca         1 G26      -0.121000
     27 C28          7.6250     2.6530     4.4900 ca         1 G26      -0.132000
     28 C29          6.7140     1.6710     4.8250 ca         1 G26      -0.112500
     29 C30          6.3930     0.6850     3.9090 ca         1 G26      -0.117300
     30 C31          6.9880     0.6820     2.6620 ca         1 G26      -0.112500
     31 N            2.1360     0.0000     1.3410 n7         1 G26      -0.819200
     32 N1           2.1280    -1.2030    -2.0800 ns         1 G26      -0.561900
     33 N2           1.5270     1.1610     3.8520 ns         1 G26      -0.585900
     34 N3           4.0500     0.0520     3.9070 ns         1 G26      -0.577900
     35 O            2.3120    -2.2280    -0.1230 o          1 G26      -0.622100
     36 O1           3.1590    -1.8360     4.6560 o          1 G26      -0.595100
     37 O2           0.8930     1.0650     5.9760 o          1 G26      -0.586100
     38 S           -0.3770    -0.1760     1.7960 ss         1 G26      -0.338200
     39 H1           1.8880     0.8830    -0.5260 h1         1 G26       0.085700
     40 H2           1.4080    -1.8110     2.2080 h2         1 G26       0.103700
     41 H3           0.8870    -0.7430     4.4390 h1         1 G26       0.128700
     42 H51         -1.6140    -1.2750    -0.6210 hc         1 G26       0.052700
     43 H52         -0.0540    -2.0950    -0.4720 hc         1 G26       0.052700
     44 H53         -0.3650    -1.0300    -1.8500 hc         1 G26       0.052700
     45 H61         -0.4710     1.3230    -1.6270 hc         1 G26       0.052700
     46 H62         -1.5860     1.4270    -0.2580 hc         1 G26       0.052700
     47 H63          0.0260     2.1450    -0.1410 hc         1 G26       0.052700
     48 H8           3.2690    -2.9540    -2.1670 h1         1 G26       0.093700
     49 H91          5.4410    -0.5710     5.3410 h1         1 G26       0.061200
     50 H92          5.6390    -1.2990     3.7410 h1         1 G26       0.061200
     51 H101         0.8770    -3.5710    -2.2570 h1         1 G26       0.038700
     52 H102         1.7350    -4.1490    -3.6930 h1         1 G26       0.038700
     53 H121         0.3550     3.6130     4.3790 hc         1 G26       0.065200
     54 H122         2.0490     3.6750     4.8880 hc         1 G26       0.065200
     55 H15         -1.4410     3.6140     6.0110 ha         1 G26       0.127500
     56 H16         -2.1480     4.2590     8.2830 ha         1 G26       0.128500
     57 H17         -0.4570     4.6530    10.0350 ha         1 G26       0.128000
     58 H18          1.9400     4.4040     9.5110 ha         1 G26       0.128500
     59 H191         3.6620    -2.8480    -4.6060 hc         1 G26       0.064200
     60 H192         2.6400    -1.4080    -4.7080 hc         1 G26       0.064200
     61 H20          7.5180     1.0990    -2.8020 ha         1 G26       0.130000
     62 H21          7.7830    -1.3460    -2.9750 ha         1 G26       0.131000
     63 H22          5.8490    -2.7570    -3.5610 ha         1 G26       0.127000
     64 H24          3.3850     0.7210    -3.8100 ha         1 G26       0.127000
     65 H25          5.3180     2.1330    -3.2220 ha         1 G26       0.131000
     66 H26          8.3610     1.6650     1.3470 ha         1 G26       0.131000
     67 H27          8.9300     3.4240     2.9790 ha         1 G26       0.130000
     68 H28          7.8770     3.4260     5.2070 ha         1 G26       0.131000
     69 H29          6.2510     1.6720     5.8040 ha         1 G26       0.136000
     70 H31          6.7370    -0.0910     1.9450 ha         1 G26       0.136000
     71 HN           3.0490    -0.4090     1.3030 hn         1 G26       0.383800
     72 HN1          1.8870    -0.3750    -2.5880 hn         1 G26       0.322500
     73 HN2          1.7030     1.7220     3.0420 hn         1 G26       0.332500
     74 HN3          3.9100     0.9620     3.5140 hn         1 G26       0.322500
     75 C11          1.1590     1.7450     5.0090 c          1 G26       0.655100
     76 O4           0.4960    -2.5290    -3.9950 oh         1 G26      -0.619800
     77 C9           5.3990    -0.3870     4.2740 c3         1 G26       0.158300
     78 H13          2.6450     3.7560     7.2410 ha         1 G26       0.127500
     79 HO4         -0.0530    -3.1270    -4.4750 ho         1 G26       0.406000
@<TRIPOS>BOND
     1     1     2 1
     2     1     6 1
     3     1     7 1
     4     1    38 1
     5     2     8 1
     6     2    31 1
     7     2    39 1
     8     3     4 1
     9     3    31 1
    10     3    38 1
    11     3    40 1
    12     4     5 1
    13     4    33 1
    14     4    41 1
    15     5    34 1
    16     5    36 2
    17     6    42 1
    18     6    43 1
    19     6    44 1
    20     7    45 1
    21     7    46 1
    22     7    47 1
    23     8    32 1
    24     8    35 2
    25     9    10 1
    26     9    18 1
    27     9    32 1
    28     9    48 1
    29    77    29 1
    30    77    34 1
    31    77    49 1
    32    77    50 1
    33    10    76 1
    34    10    51 1
    35    10    52 1
    36    75    11 1
    37    75    33 1
    38    75    37 2
    39    11    13 1
    40    11    53 1
    41    11    54 1
    42    12    13 ar
    43    12    17 ar
    44    12    78 1
    45    13    14 ar
    46    14    15 ar
    47    14    55 1
    48    15    16 ar
    49    15    56 1
    50    16    17 ar
    51    16    57 1
    52    17    58 1
    53    18    22 1
    54    18    59 1
    55    18    60 1
    56    19    20 ar
    57    19    24 ar
    58    19    61 1
    59    20    21 ar
    60    20    62 1
    61    21    22 ar
    62    21    63 1
    63    22    23 ar
    64    23    24 ar
    65    23    64 1
    66    24    65 1
    67    25    26 ar
    68    25    30 ar
    69    25    66 1
    70    26    27 ar
    71    26    67 1
    72    27    28 ar
    73    27    68 1
    74    28    29 ar
    75    28    69 1
    76    29    30 ar
    77    30    70 1
    78    31    71 1
    79    32    72 1
    80    33    73 1
    81    34    74 1
    82    76    79 1
@<TRIPOS>SUBSTRUCTURE
     1 G26         1 TEMP              0 ****  ****    0 ROOT
