@<TRIPOS>MOLECULE
molecule
   42    43     1     0     0
SMALL
bcc


@<TRIPOS>ATOM
      1 C12          0.0000     0.0000     0.0000 ca         1 G27      -0.125000
      2 C13          1.3820     0.0000     0.0000 ca         1 G27      -0.125500
      3 C14          2.0730     0.0000     1.1970 ca         1 G27      -0.132000
      4 C15          1.3820     0.0010     2.3940 ca         1 G27      -0.125500
      5 C16          0.0000     0.0050     2.3950 ca         1 G27      -0.125000
      6 C11         -0.6910    -0.0010     1.1970 ca         1 G27      -0.081300
      7 C10         -2.1980    -0.0010     1.1980 c3         1 G27      -0.037100
      8 C9          -2.7080    -1.4430     1.1960 c3         1 G27      -0.076400
      9 C8          -4.2380    -1.4440     1.1960 c3         1 G27       0.136800
     10 N1          -4.7270    -2.8290     1.1960 n3         1 G27      -0.672600
     11 C7          -6.1720    -2.7650     0.9520 c3         1 G27       0.141800
     12 C2          -4.5360    -3.3450     2.5550 c3         1 G27       0.114800
     13 C3          -5.0320    -4.7900     2.6360 c3         1 G27       0.130100
     14 O3          -4.8140    -5.2960     3.9530 oh         1 G27      -0.610800
     15 C4          -6.5290    -4.8290     2.3120 c3         1 G27       0.146100
     16 O4          -6.9770    -6.1840     2.2830 oh         1 G27      -0.604800
     17 C5          -6.7580    -4.1790     0.9430 c3         1 G27      -0.069700
     18 C6          -8.2600    -4.1070     0.6570 c3         1 G27       0.143400
     19 O6          -8.4690    -3.6070    -0.6660 oh         1 G27      -0.611800
     20 H12         -0.5420    -0.0020    -0.9380 ha         1 G27       0.130000
     21 H13          1.9240     0.0000    -0.9380 ha         1 G27       0.128500
     22 H14          3.1570    -0.0020     1.1980 ha         1 G27       0.128000
     23 H15          1.9240     0.0030     3.3320 ha         1 G27       0.128500
     24 H16         -0.5410     0.0040     3.3330 ha         1 G27       0.130000
     25 H101        -2.5590     0.5080     2.0830 hc         1 G27       0.047700
     26 H102        -2.5600     0.5100     0.3140 hc         1 G27       0.047700
     27 H91         -2.3460    -1.9550     2.0800 hc         1 G27       0.054200
     28 H92         -2.3460    -1.9530     0.3110 hc         1 G27       0.054200
     29 H81         -4.5990    -0.9330     0.3120 h1         1 G27       0.038200
     30 H82         -4.5990    -0.9330     2.0810 h1         1 G27       0.038200
     31 H71         -6.3530    -2.2960    -0.0080 h1         1 G27       0.047700
     32 H72         -6.6430    -2.1860     1.7370 h1         1 G27       0.047700
     33 H21         -3.4820    -3.3130     2.8060 h1         1 G27       0.047200
     34 H22         -5.0960    -2.7340     3.2530 h1         1 G27       0.047200
     35 H3          -4.4930    -5.3960     1.9170 h1         1 G27       0.061700
     36 HO3         -4.0900    -5.9000     3.9430 ho         1 G27       0.409000
     37 H4          -7.0760    -4.2780     3.0680 h1         1 G27       0.041700
     38 HO4         -7.4370    -6.3810     3.0820 ho         1 G27       0.408000
     39 H5          -6.2670    -4.7680     0.1780 hc         1 G27       0.091700
     40 H61         -8.7330    -3.4460     1.3730 h1         1 G27       0.027200
     41 H62         -8.6910    -5.0980     0.7410 h1         1 G27       0.027200
     42 HO6         -9.3680    -3.7440    -0.9150 ho         1 G27       0.403000
@<TRIPOS>BOND
     1     1     2 ar
     2     1     6 ar
     3     1    20 1
     4     2     3 ar
     5     2    21 1
     6     3     4 ar
     7     3    22 1
     8     4     5 ar
     9     4    23 1
    10     5     6 ar
    11     5    24 1
    12     6     7 1
    13     7     8 1
    14     7    25 1
    15     7    26 1
    16     8     9 1
    17     8    27 1
    18     8    28 1
    19     9    10 1
    20     9    29 1
    21     9    30 1
    22    10    11 1
    23    10    12 1
    24    11    17 1
    25    11    31 1
    26    11    32 1
    27    12    13 1
    28    12    33 1
    29    12    34 1
    30    13    14 1
    31    13    15 1
    32    13    35 1
    33    14    36 1
    34    15    16 1
    35    15    17 1
    36    15    37 1
    37    16    38 1
    38    17    18 1
    39    17    39 1
    40    18    19 1
    41    18    40 1
    42    18    41 1
    43    19    42 1
@<TRIPOS>SUBSTRUCTURE
     1 G27         1 TEMP              0 ****  ****    0 ROOT
