@<TRIPOS>MOLECULE
G28
   46    44     1     0     0
SMALL
bcc


@<TRIPOS>ATOM
      1 C1         -1.0780    2.5570    1.9280 c1        1 G28      0.923000
      2 O1A        -0.0450    1.9980    1.6680 o         1 G28     -0.460000
      3 O1B        -2.0920    3.1000    2.1800 o         1 G28     -0.460000
      4 C2          1.1600   -1.5140   -0.0150 c         1 G28      0.612900
      5 C3          1.5680   -0.9790    1.3390 c3        1 G28     -0.264400
      6 C4          2.8450   -0.1370    1.4000 c3        1 G28      0.136500
      7 C5          4.1390   -0.7050    0.7200 c3        1 G28      0.248700
      8 N5          4.1780   -2.2230    0.8140 n4        1 G28     -0.707800
      9 C10         5.5800   -2.8080    0.9100 c         1 G28      0.557100
     10 O10         6.5130   -2.0240    0.8750 o         1 G28     -0.404100
     11 C11         5.6270   -4.2920    1.0460 c3        1 G28     -0.194100
     12 C6          4.4350   -0.2700   -0.6500 c2        1 G28     -0.597200
     13 O6          1.7510   -2.4660   -0.5280 o         1 G28     -0.556100
     14 C7          3.5090   -0.0430   -1.6570 c2        1 G28      0.564300
     15 O7          2.2620    0.1090   -1.5730 o         1 G28     -0.719300
     16 N8          4.0060    0.1130   -3.0860 n4        1 G28     -0.573200
     17 C81         5.0900    1.1410   -3.1970 c3        1 G28      0.121300
     18 C82         5.1900    1.7610   -4.5760 c3        1 G28     -0.135600
     19 C9          4.4450   -1.2120   -3.6340 c3        1 G28      0.121300
     20 C91         3.3000   -2.1870   -3.8160 c3        1 G28     -0.135600
     21 N4          2.5860    1.2600    0.9210 n4        1 G28     -0.835600
     22 H2          0.2800   -1.0300   -0.4910 h4        1 G28      0.071200
     23 H31         0.7090   -0.3660    1.7440 hc        1 G28      0.112200
     24 H32         1.6780   -1.8450    2.0500 hc        1 G28      0.112200
     25 H4          3.1010   -0.0360    2.5060 hx        1 G28      0.110700
     26 H5          5.0030   -0.3530    1.3770 hx        1 G28      0.120700
     27 HN5         3.7320   -2.6120   -0.0360 hn        1 G28      0.463800
     28 H111        5.3240   -4.5940    2.0830 hc        1 G28      0.122033
     29 H112        4.9630   -4.8060    0.3060 hc        1 G28      0.122033
     30 H113        6.6860   -4.6310    0.8780 hc        1 G28      0.122033
     31 H6          5.5130   -0.2200   -0.8720 ha        1 G28      0.173000
     32 H811        4.8680    1.9440   -2.4390 hx        1 G28      0.093950
     33 H812        6.0670    0.6520   -2.9210 hx        1 G28      0.093950
     34 H821        5.4600    1.0070   -5.3550 hc        1 G28      0.080700
     35 H822        4.2380    2.2640   -4.8750 hc        1 G28      0.080700
     36 H823        6.0000    2.5360   -4.5490 hc        1 G28      0.080700
     37 H91         4.9430   -1.0190   -4.6290 hx        1 G28      0.093950
     38 H92         5.2140   -1.6320   -2.9270 hx        1 G28      0.093950
     39 H911        2.5670   -1.8210   -4.5780 hc        1 G28      0.080700
     40 H912        2.7540   -2.3670   -2.8560 hc        1 G28      0.080700
     41 H913        3.7210   -3.1580   -4.1790 hc        1 G28      0.080700
     42 HN41        3.4620    1.6980    0.6210 hn        1 G28      0.481133
     43 HN42        2.1470    1.8100    1.6710 hn        1 G28      0.481133
     44 H52         3.6420   -2.5500    1.6220 hn        1 G28      0.463800
     45 H81         3.1950    0.4290   -3.6430 hn        1 G28      0.460800
     46 H43         1.9340    1.2340    0.1160 hn        1 G28      0.481133
@<TRIPOS>BOND
     1    1    2 2   
     2    1    3 2   
     3    4    5 1   
     4    4   13 2   
     5    4   22 1   
     6    5    6 1   
     7    5   23 1   
     8    5   24 1   
     9    6    7 1   
    10    6   21 1   
    11    6   25 1   
    12    7    8 1   
    13    7   12 1   
    14    7   26 1   
    15    8    9 1   
    16    8   27 1   
    17    8   44 1   
    18    9   10 2   
    19    9   11 1   
    20   11   28 1   
    21   11   29 1   
    22   11   30 1   
    23   12   14 2   
    24   12   31 1   
    25   14   15 1   
    26   14   16 1   
    27   16   17 1   
    28   16   19 1   
    29   16   45 1   
    30   17   18 1   
    31   17   32 1   
    32   17   33 1   
    33   18   34 1   
    34   18   35 1   
    35   18   36 1   
    36   19   20 1   
    37   19   37 1   
    38   19   38 1   
    39   20   39 1   
    40   20   40 1   
    41   20   41 1   
    42   21   42 1   
    43   21   43 1   
    44   21   46 1   
@<TRIPOS>SUBSTRUCTURE
     1 G28         1 TEMP              0 ****  ****    0 ROOT
