@<TRIPOS>MOLECULE
G29
   54    57     1     0     0
SMALL
bcc


@<TRIPOS>ATOM
      1 O1         -0.0520    0.1920   -0.1880 o         1 G29     -0.529100
      2 C3          1.1830    0.1120   -0.1400 c         1 G29      0.560500
      3 C2          1.9280    0.0790    1.1260 ce        1 G29     -0.246200
      4 C1          3.2580   -0.0610    1.1610 c2        1 G29     -0.098200
      5 C10         4.1360   -0.2140   -0.0480 c3        1 G29      0.011400
      6 C19         4.7340   -1.6210    0.0210 c3        1 G29     -0.087100
      7 C9          5.2200    0.8930   -0.0310 c3        1 G29     -0.041700
      8 C11         6.0600    0.8630    1.2420 c3        1 G29     -0.076400
      9 C12         7.2230    1.8450    1.2550 c3        1 G29     -0.056400
     10 C4          2.0110    0.0510   -1.3560 ce        1 G29     -0.240200
     11 C5          3.3480   -0.0810   -1.3280 c2        1 G29     -0.074400
     12 C6          4.1200   -0.0340   -2.6230 c3        1 G29      0.173300
     13 O           4.7580   -1.2730   -2.9400 os        1 G29     -0.408600
     14 C23         3.8230   -2.2880   -3.3320 c3        1 G29      0.213500
     15 C24         4.5560   -3.4820   -3.6480 c1        1 G29     -0.153100
     16 C25         5.1490   -4.4860   -3.9170 c1        1 G29     -0.102100
     17 C26         5.8450   -5.6880   -4.2400 c3        1 G29     -0.022000
     18 C7          5.2270    1.0140   -2.5440 c3        1 G29     -0.070400
     19 C8          6.0820    0.8340   -1.3040 c3        1 G29     -0.047700
     20 C14         7.1180    1.9330   -1.2070 c3        1 G29     -0.063700
     21 C13         8.0570    1.6990   -0.0020 c3        1 G29     -0.153000
     22 C18         8.7710    0.3530   -0.0240 c3        1 G29     -0.083100
     23 C15         8.0590    2.2020   -2.3770 c3        1 G29     -0.073400
     24 C16         9.2230    2.9750   -1.7500 c3        1 G29     -0.188400
     25 C17         9.1340    2.7510   -0.2530 c         1 G29      0.577100
     26 O2          9.8200    3.3130    0.5960 o         1 G29     -0.518100
     27 H1          1.3250    0.1680    2.0440 ha        1 G29      0.152000
     28 H2          3.7880   -0.1130    2.1270 ha        1 G29      0.135000
     29 H3          5.2480   -1.7790    0.9990 hc        1 G29      0.051033
     30 H4          5.4630   -1.7810   -0.8080 hc        1 G29      0.051033
     31 H5          3.9200   -2.3800   -0.0770 hc        1 G29      0.051033
     32 H6          4.6700    1.8790   -0.0460 hc        1 G29      0.053700
     33 H7          5.4020    1.1120    2.1170 hc        1 G29      0.044700
     34 H8          6.4570   -0.1730    1.4060 hc        1 G29      0.044700
     35 H9          6.8360    2.8940    1.3280 hc        1 G29      0.053200
     36 H10         7.8580    1.6570    2.1590 hc        1 G29      0.053200
     37 H11         1.4560    0.1380   -2.3050 ha        1 G29      0.148000
     38 H12         3.4180    0.2350   -3.4680 h1        1 G29      0.047700
     39 H13         3.1070   -2.4760   -2.4810 h1        1 G29      0.050200
     40 H14         3.2450   -1.9330   -4.2330 h1        1 G29      0.050200
     41 H15         5.6530   -5.9790   -5.3060 hc        1 G29      0.057700
     42 H16         6.9490   -5.5480   -4.1050 hc        1 G29      0.057700
     43 H17         5.5100   -6.5270   -3.5780 hc        1 G29      0.057700
     44 H18         5.8750    0.9280   -3.4550 hc        1 G29      0.059200
     45 H19         4.7500    2.0280   -2.5440 hc        1 G29      0.059200
     46 H20         6.5910   -0.1680   -1.3730 hc        1 G29      0.076700
     47 H21         6.5590    2.8980   -1.0170 hc        1 G29      0.051700
     48 H22         9.3050    0.2110   -0.9940 hc        1 G29      0.045033
     49 H23         9.5150    0.3150    0.8080 hc        1 G29      0.045033
     50 H24         8.0500   -0.4880    0.1080 hc        1 G29      0.045033
     51 H25         8.4130    1.2460   -2.8350 hc        1 G29      0.051700
     52 H26         7.5560    2.8000   -3.1740 hc        1 G29      0.051700
     53 H27         9.1510    4.0690   -1.9720 hc        1 G29      0.076200
     54 H28        10.2100    2.6100   -2.1280 hc        1 G29      0.076200
@<TRIPOS>BOND
     1    1    2 2   
     2    2    3 1   
     3    2   10 1   
     4    3    4 2   
     5    3   27 1   
     6    4    5 1   
     7    4   28 1   
     8    5    6 1   
     9    5    7 1   
    10    5   11 1   
    11    6   29 1   
    12    6   30 1   
    13    6   31 1   
    14    7    8 1   
    15    7   19 1   
    16    7   32 1   
    17    8    9 1   
    18    8   33 1   
    19    8   34 1   
    20    9   21 1   
    21    9   35 1   
    22    9   36 1   
    23   10   11 2   
    24   10   37 1   
    25   11   12 1   
    26   12   13 1   
    27   12   18 1   
    28   12   38 1   
    29   13   14 1   
    30   14   15 1   
    31   14   39 1   
    32   14   40 1   
    33   15   16 3   
    34   16   17 1   
    35   17   41 1   
    36   17   42 1   
    37   17   43 1   
    38   18   19 1   
    39   18   44 1   
    40   18   45 1   
    41   19   20 1   
    42   19   46 1   
    43   20   21 1   
    44   20   23 1   
    45   20   47 1   
    46   21   22 1   
    47   21   25 1   
    48   22   48 1   
    49   22   49 1   
    50   22   50 1   
    51   23   24 1   
    52   23   51 1   
    53   23   52 1   
    54   24   25 1   
    55   24   53 1   
    56   24   54 1   
    57   25   26 2   
@<TRIPOS>SUBSTRUCTURE
     1 G29         1 TEMP              0 ****  ****    0 ROOT
