@<TRIPOS>MOLECULE
molecule
   54    57     1     0     0
SMALL
bcc


@<TRIPOS>ATOM
      1 O1           0.0000     0.0000     0.0000 o          1 G29      -0.524100
      2 C3           1.2170     0.0000     0.0000 c          1 G29       0.563500
      3 C2           1.9700     0.0000     1.2650 ce         1 G29      -0.242200
      4 C1           3.2930    -0.0460     1.2450 c2         1 G29      -0.099200
      5 C10          4.1070    -0.1080    -0.0020 c3         1 G29       0.001400
      6 C19          4.8610    -1.4390    -0.0040 c3         1 G29      -0.078100
      7 C9           5.1600     1.0040    -0.0140 c3         1 G29      -0.045700
      8 C11          6.0350     0.8820     1.2290 c3         1 G29      -0.086400
      9 C12          7.1940     1.8920     1.2080 c3         1 G29      -0.055400
     10 C4           1.9680    -0.0050    -1.2640 ce         1 G29      -0.239200
     11 C5           3.2940    -0.0390    -1.2610 c2         1 G29      -0.074400
     12 C6           4.0330    -0.0010    -2.5850 c3         1 G29       0.179300
     13 O            4.6780    -1.2560    -2.8140 os         1 G29      -0.414600
     14 C23          3.8730    -2.2050    -3.5150 c3         1 G29       0.222500
     15 C24          4.6310    -3.4530    -3.6950 c1         1 G29      -0.143100
     16 C25          5.2360    -4.4470    -3.8580 c1         1 G29      -0.077100
     17 C26          5.7850    -5.7970    -3.3130 c3         1 G29      -0.016000
     18 C7           5.0810     1.1150    -2.5160 c3         1 G29      -0.069400
     19 C8           5.9880     0.8930    -1.3050 c3         1 G29      -0.060700
     20 C14          7.0560     1.9710    -1.2560 c3         1 G29      -0.065700
     21 C13          7.9860     1.6390    -0.0590 c3         1 G29      -0.179000
     22 C18          8.4010     0.1670    -0.1220 c3         1 G29      -0.086100
     23 C15          8.0560     1.9660    -2.4200 c3         1 G29      -0.076400
     24 C16          9.2920     2.6780    -1.8060 c3         1 G29      -0.192400
     25 C17          9.1870     2.5060    -0.2940 c          1 G29       0.591100
     26 O2           9.9210     2.9740     0.5440 o          1 G29      -0.506100
     27 H1           1.4460     0.1050     2.2070 ha         1 G29       0.153000
     28 H2           3.8160    -0.0370     2.1930 ha         1 G29       0.133000
     29 H3           4.2530    -2.1970    -0.4810 hc         1 G29       0.048033
     30 H4           5.7910    -1.3250    -0.5480 hc         1 G29       0.048033
     31 H5           5.0740    -1.7340     1.0160 hc         1 G29       0.048033
     32 H6           4.6590     1.9640     0.0010 hc         1 G29       0.056700
     33 H7           6.4420    -0.1210     1.2760 hc         1 G29       0.050200
     34 H8           5.4270     1.0630     2.1070 hc         1 G29       0.050200
     35 H9           7.8280     1.7410     2.0740 hc         1 G29       0.054700
     36 H10          6.8020     2.9010     1.2020 hc         1 G29       0.054700
     37 H11          1.4350     0.0340    -2.2060 ha         1 G29       0.148000
     38 H12          3.3330     0.2070    -3.3860 h1         1 G29       0.048700
     39 H13          3.6030    -1.8040    -4.4840 h1         1 G29       0.045700
     40 H14          2.9740    -2.4070    -2.9450 h1         1 G29       0.045700
     41 H15          5.1970    -6.5530    -2.8070 hc         1 G29       0.043700
     42 H16          6.0620    -6.4840    -4.1040 hc         1 G29       0.043700
     43 H17          6.6850    -5.8240    -2.7110 hc         1 G29       0.043700
     44 H18          4.5810     2.0710    -2.4200 hc         1 G29       0.058200
     45 H19          5.6780     1.1030    -3.4200 hc         1 G29       0.058200
     46 H20          6.4520    -0.0840    -1.3640 hc         1 G29       0.084700
     47 H21          6.6110     2.9510    -1.1350 hc         1 G29       0.062700
     48 H22          9.4200     0.0640     0.2290 hc         1 G29       0.047033
     49 H23          8.3340    -0.1830    -1.1450 hc         1 G29       0.047033
     50 H24          7.7410    -0.4210     0.5040 hc         1 G29       0.047033
     51 H25          7.6680     2.5290    -3.2610 hc         1 G29       0.053700
     52 H26          8.3020     0.9510    -2.7090 hc         1 G29       0.053700
     53 H27          9.2760     3.7310    -2.0600 hc         1 G29       0.072200
     54 H28         10.2020     2.2160    -2.1680 hc         1 G29       0.072200
@<TRIPOS>BOND
     1    26    25 2
     2     9     8 1
     3     9    21 1
     4    22    21 1
     5     8     7 1
     6    25    21 1
     7    25    24 1
     8    21    20 1
     9     4     5 1
    10     4     3 2
    11     6     5 1
    12    24    23 1
    13     7     5 1
    14     7    19 1
    15    20    19 1
    16    20    23 1
    17     5    11 1
    18     3     2 1
    19    19    18 1
    20     2     1 2
    21     2    10 1
    22    11    10 2
    23    11    12 1
    24    18    12 1
    25    12    13 1
    26    13    14 1
    27    14    15 1
    28    15    16 3
    29    16    17 1
    30     3    27 1
    31     4    28 1
    32     6    29 1
    33     6    30 1
    34     6    31 1
    35     7    32 1
    36     8    33 1
    37     8    34 1
    38     9    35 1
    39     9    36 1
    40    10    37 1
    41    12    38 1
    42    14    39 1
    43    14    40 1
    44    17    41 1
    45    17    42 1
    46    17    43 1
    47    18    44 1
    48    18    45 1
    49    19    46 1
    50    20    47 1
    51    22    48 1
    52    22    49 1
    53    22    50 1
    54    23    51 1
    55    23    52 1
    56    24    53 1
    57    24    54 1
@<TRIPOS>SUBSTRUCTURE
     1 G29         1 TEMP              0 ****  ****    0 ROOT
