@<TRIPOS>MOLECULE
molecule
   73    72     1     0     0
SMALL
bcc


@<TRIPOS>ATOM
      1 C01          0.0000     0.0000     0.0000 c          1 G2A       0.627100
      2 O01          1.2090     0.0000     0.0000 o          1 G2A      -0.564000
      3 C02         -0.7540     0.0000     1.3050 c3         1 G2A      -0.125400
      4 C03          0.2410    -0.0020     2.4680 c3         1 G2A      -0.072400
      5 O03         -0.6710     0.0070    -1.1630 os         1 G2A      -0.401900
      6 C04         -0.5240    -0.0020     3.7920 c3         1 G2A      -0.084400
      7 C05          0.4700    -0.0040     4.9560 c3         1 G2A      -0.080400
      8 C06         -0.2940    -0.0050     6.2800 c3         1 G2A      -0.082400
      9 C07          0.7000    -0.0060     7.4440 c3         1 G2A      -0.081400
     10 C08         -0.0650    -0.0060     8.7690 c3         1 G2A      -0.082400
     11 C09          0.9290    -0.0070     9.9320 c3         1 G2A      -0.082400
     12 C10          0.1640    -0.0080    11.2570 c3         1 G2A      -0.081400
     13 C11          1.1580    -0.0090    12.4200 c3         1 G2A      -0.082400
     14 C12          0.3940    -0.0100    13.7450 c3         1 G2A      -0.081400
     15 C13          1.3870    -0.0110    14.9070 c3         1 G2A      -0.081400
     16 C14          0.6230    -0.0120    16.2330 c3         1 G2A      -0.082400
     17 C15          1.6170    -0.0140    17.3950 c3         1 G2A      -0.082400
     18 C16          0.8520    -0.0130    18.7210 c3         1 G2A      -0.082400
     19 C17          1.8470    -0.0160    19.8830 c3         1 G2A      -0.082400
     20 C18          1.0810    -0.0150    21.2090 c3         1 G2A      -0.081400
     21 C19          2.0760    -0.0170    22.3710 c3         1 G2A      -0.084400
     22 C20          1.3110    -0.0180    23.6970 c3         1 G2A      -0.092100
     23 C23          0.3970    -1.4270    -2.8160 c3         1 G2A       0.137400
     24 CAS         -0.6500     0.7410    -3.4840 c3         1 G2A       0.137400
     25 CBA          0.1200     0.0130    -2.3800 c3         1 G2A       0.155100
     26 O27         -0.8330    -2.0630    -3.1670 oh         1 G2A      -0.570800
     27 O26         -1.8320     0.0060    -3.8050 oh         1 G2A      -0.570800
     28 H021        -1.3780    -0.8840     1.3610 hc         1 G2A       0.073700
     29 H022        -1.3750     0.8850     1.3620 hc         1 G2A       0.073700
     30 H031         0.8630    -0.8870     2.4100 hc         1 G2A       0.057700
     31 H032         0.8650     0.8820     2.4110 hc         1 G2A       0.057700
     32 H041        -1.1460     0.8840     3.8500 hc         1 G2A       0.041200
     33 H042        -1.1480    -0.8850     3.8490 hc         1 G2A       0.041200
     34 HBA          1.0590     0.5230    -2.1980 h1         1 G2A       0.080700
     35 H051         1.0920    -0.8890     4.8970 hc         1 G2A       0.043700
     36 H052         1.0940     0.8800     4.8990 hc         1 G2A       0.043700
     37 H061        -0.9170     0.8800     6.3380 hc         1 G2A       0.040700
     38 H062        -0.9170    -0.8890     6.3370 hc         1 G2A       0.040700
     39 H071         1.3230     0.8790     7.3870 hc         1 G2A       0.041700
     40 H072         1.3220    -0.8900     7.3860 hc         1 G2A       0.041700
     41 H081        -0.6880    -0.8910     8.8260 hc         1 G2A       0.040700
     42 H082        -0.6880     0.8780     8.8270 hc         1 G2A       0.040700
     43 H091         1.5520    -0.8920     9.8730 hc         1 G2A       0.041200
     44 H092         1.5520     0.8770     9.8750 hc         1 G2A       0.041200
     45 H101        -0.4590    -0.8930    11.3140 hc         1 G2A       0.040700
     46 H102        -0.4580     0.8760    11.3150 hc         1 G2A       0.040700
     47 H111         1.7810     0.8750    12.3630 hc         1 G2A       0.040700
     48 H112         1.7810    -0.8940    12.3610 hc         1 G2A       0.040700
     49 H121        -0.2290     0.8750    13.8030 hc         1 G2A       0.040700
     50 H122        -0.2290    -0.8940    13.8020 hc         1 G2A       0.040700
     51 H131         2.0100    -0.8950    14.8490 hc         1 G2A       0.040700
     52 H132         2.0100     0.8740    14.8510 hc         1 G2A       0.040700
     53 H141        -0.0010    -0.8960    16.2900 hc         1 G2A       0.040700
     54 H142         0.0010     0.8730    16.2920 hc         1 G2A       0.040700
     55 H151         2.2390    -0.8990    17.3370 hc         1 G2A       0.040700
     56 H152         2.2410     0.8700    17.3380 hc         1 G2A       0.040700
     57 H161         0.2310     0.8720    18.7790 hc         1 G2A       0.040700
     58 H162         0.2280    -0.8970    18.7780 hc         1 G2A       0.040700
     59 H171         2.4680    -0.9010    19.8250 hc         1 G2A       0.040700
     60 H172         2.4710     0.8680    19.8260 hc         1 G2A       0.040700
     61 H181         0.4600     0.8700    21.2670 hc         1 G2A       0.040700
     62 H182         0.4570    -0.8990    21.2660 hc         1 G2A       0.040700
     63 H191         2.6990     0.8670    22.3140 hc         1 G2A       0.039700
     64 H192         2.6980    -0.9020    22.3130 hc         1 G2A       0.039700
     65 H201         2.0160    -0.0190    24.5200 hc         1 G2A       0.032367
     66 H202         0.6880    -0.9020    23.7530 hc         1 G2A       0.032367
     67 H203         0.6890     0.8670    23.7550 hc         1 G2A       0.032367
     68 H231         0.8630    -1.9680    -2.0020 h1         1 G2A       0.028450
     69 H232         1.0590    -1.4240    -3.6740 h1         1 G2A       0.028450
     70 H27         -0.6830    -2.9830    -3.3060 ho         1 G2A       0.391000
     71 H26         -2.4040     0.5430    -4.3280 ho         1 G2A       0.391000
     72 HAS1        -0.0250     0.8230    -4.3660 h1         1 G2A       0.028450
     73 HAS2        -0.9230     1.7320    -3.1420 h1         1 G2A       0.028450
@<TRIPOS>BOND
     1     1     2 2
     2     1     3 1
     3     1     5 1
     4     3     4 1
     5     4     6 1
     6     5    25 1
     7     6     7 1
     8     7     8 1
     9     8     9 1
    10     9    10 1
    11    10    11 1
    12    11    12 1
    13    12    13 1
    14    13    14 1
    15    14    15 1
    16    15    16 1
    17    16    17 1
    18    17    18 1
    19    18    19 1
    20    19    20 1
    21    20    21 1
    22    21    22 1
    23    23    26 1
    24    23    25 1
    25    27    24 1
    26    25    24 1
    27     3    28 1
    28     3    29 1
    29     4    30 1
    30     4    31 1
    31     6    32 1
    32     6    33 1
    33    25    34 1
    34     7    35 1
    35     7    36 1
    36     8    37 1
    37     8    38 1
    38     9    39 1
    39     9    40 1
    40    10    41 1
    41    10    42 1
    42    11    43 1
    43    11    44 1
    44    12    45 1
    45    12    46 1
    46    13    47 1
    47    13    48 1
    48    14    49 1
    49    14    50 1
    50    15    51 1
    51    15    52 1
    52    16    53 1
    53    16    54 1
    54    17    55 1
    55    17    56 1
    56    18    57 1
    57    18    58 1
    58    19    59 1
    59    19    60 1
    60    20    61 1
    61    20    62 1
    62    21    63 1
    63    21    64 1
    64    22    65 1
    65    22    66 1
    66    22    67 1
    67    23    68 1
    68    23    69 1
    69    26    70 1
    70    27    71 1
    71    24    72 1
    72    24    73 1
@<TRIPOS>SUBSTRUCTURE
     1 G2A         1 TEMP              0 ****  ****    0 ROOT
