@<TRIPOS>MOLECULE
G2A
   73    72     1     0     0
SMALL
bcc


@<TRIPOS>ATOM
      1 C01         0.2630   -0.4310   -0.0430 c         1 G2A      0.644100
      2 O01         1.3910   -0.8620   -0.2830 o         1 G2A     -0.541000
      3 C02        -0.4910   -0.4120    1.2500 c3        1 G2A     -0.126400
      4 C03         0.4460   -0.2260    2.4250 c3        1 G2A     -0.079400
      5 O03        -0.4590    0.1160   -1.0720 os        1 G2A     -0.449900
      6 C04        -0.3050   -0.3490    3.7340 c3        1 G2A     -0.079400
      7 C05         0.6230   -0.1490    4.9130 c3        1 G2A     -0.079400
      8 C06        -0.1230   -0.2780    6.2240 c3        1 G2A     -0.079400
      9 C07         0.8050   -0.0820    7.4040 c3        1 G2A     -0.079400
     10 C08         0.0600   -0.2120    8.7160 c3        1 G2A     -0.079400
     11 C09         0.9880   -0.0210    9.8960 c3        1 G2A     -0.079400
     12 C10         0.2440   -0.1540   11.2070 c3        1 G2A     -0.079400
     13 C11         1.1730    0.0330   12.3870 c3        1 G2A     -0.079400
     14 C12         0.4300   -0.1020   13.6990 c3        1 G2A     -0.079400
     15 C13         1.3590    0.0820   14.8790 c3        1 G2A     -0.079400
     16 C14         0.6170   -0.0550   16.1910 c3        1 G2A     -0.079400
     17 C15         1.5470    0.1260   17.3710 c3        1 G2A     -0.079400
     18 C16         0.8040   -0.0120   18.6820 c3        1 G2A     -0.079400
     19 C17         1.7350    0.1670   19.8630 c3        1 G2A     -0.079400
     20 C18         0.9930    0.0290   21.1740 c3        1 G2A     -0.079400
     21 C19         1.9230    0.2070   22.3550 c3        1 G2A     -0.080400
     22 C20         1.1880    0.0700   23.6640 c3        1 G2A     -0.092100
     23 C23        -0.0410   -1.3120   -3.0020 c3        1 G2A      0.122400
     24 CAS        -0.6160    1.1690   -3.1720 c3        1 G2A      0.122400
     25 CBA         0.1200    0.0800   -2.3880 c3        1 G2A      0.067100
     26 O27        -1.3610   -1.7980   -2.9440 oh        1 G2A     -0.601300
     27 O26        -2.0100    0.9470   -3.2180 oh        1 G2A     -0.601300
     28 H021       -1.2620    0.4030    1.2260 hc        1 G2A      0.080700
     29 H022       -1.0330   -1.3930    1.3320 hc        1 G2A      0.080700
     30 H031        0.9350    0.7820    2.3610 hc        1 G2A      0.057700
     31 H032        1.2630   -0.9940    2.3760 hc        1 G2A      0.057700
     32 H041       -1.1290    0.4110    3.7700 hc        1 G2A      0.041700
     33 H042       -0.7840   -1.3610    3.8000 hc        1 G2A      0.041700
     34 HBA         1.2160    0.3280   -2.3230 h1        1 G2A      0.081700
     35 H051        1.4490   -0.9070    4.8740 hc        1 G2A      0.042700
     36 H052        1.1000    0.8640    4.8490 hc        1 G2A      0.042700
     37 H061       -0.6020   -1.2910    6.2870 hc        1 G2A      0.040200
     38 H062       -0.9480    0.4810    6.2640 hc        1 G2A      0.040200
     39 H071        1.6310   -0.8400    7.3630 hc        1 G2A      0.040200
     40 H072        1.2830    0.9310    7.3430 hc        1 G2A      0.040200
     41 H081       -0.4210   -1.2240    8.7760 hc        1 G2A      0.039700
     42 H082       -0.7640    0.5480    8.7580 hc        1 G2A      0.039700
     43 H091        1.8130   -0.7800    9.8520 hc        1 G2A      0.039700
     44 H092        1.4680    0.9920    9.8360 hc        1 G2A      0.039700
     45 H101       -0.2380   -1.1650   11.2650 hc        1 G2A      0.039700
     46 H102       -0.5790    0.6070   11.2520 hc        1 G2A      0.039700
     47 H111        1.9970   -0.7270   12.3420 hc        1 G2A      0.039700
     48 H112        1.6540    1.0450   12.3300 hc        1 G2A      0.039700
     49 H121       -0.3930    0.6600   13.7460 hc        1 G2A      0.039700
     50 H122       -0.0540   -1.1130   13.7550 hc        1 G2A      0.039700
     51 H131        1.8420    1.0930   14.8240 hc        1 G2A      0.039700
     52 H132        2.1820   -0.6800   14.8320 hc        1 G2A      0.039700
     53 H141        0.1330   -1.0660   16.2450 hc        1 G2A      0.039700
     54 H142       -0.2050    0.7070   16.2390 hc        1 G2A      0.039700
     55 H151        2.0300    1.1370   17.3170 hc        1 G2A      0.039700
     56 H152        2.3690   -0.6370   17.3220 hc        1 G2A      0.039700
     57 H161        0.3200   -1.0230   18.7360 hc        1 G2A      0.039700
     58 H162       -0.0170    0.7510   18.7320 hc        1 G2A      0.039700
     59 H171        2.2200    1.1770   19.8090 hc        1 G2A      0.039700
     60 H172        2.5560   -0.5960   19.8130 hc        1 G2A      0.039700
     61 H181        0.1720    0.7920   21.2240 hc        1 G2A      0.039700
     62 H182        0.5070   -0.9820   21.2270 hc        1 G2A      0.039700
     63 H191        2.4080    1.2170   22.3000 hc        1 G2A      0.038700
     64 H192        2.7440   -0.5560   22.3030 hc        1 G2A      0.038700
     65 H201        0.3810    0.8390   23.7450 hc        1 G2A      0.032700
     66 H202        0.7180   -0.9400   23.7480 hc        1 G2A      0.032700
     67 H203        1.8910    0.2050   24.5200 hc        1 G2A      0.032700
     68 H231        0.3230   -1.2800   -4.0640 h1        1 G2A      0.058200
     69 H232        0.5640   -2.0540   -2.4120 h1        1 G2A      0.058200
     70 H27        -1.9230   -1.1820   -3.4340 ho        1 G2A      0.418000
     71 H26        -2.3220    0.8980   -2.3050 ho        1 G2A      0.418000
     72 HAS1       -0.2820    1.1540   -4.2440 h1        1 G2A      0.058200
     73 HAS2       -0.4020    2.1720   -2.7160 h1        1 G2A      0.058200
@<TRIPOS>BOND
     1    1    2 2   
     2    1    3 1   
     3    1    5 1   
     4    3    4 1   
     5    3   28 1   
     6    3   29 1   
     7    4    6 1   
     8    4   30 1   
     9    4   31 1   
    10    5   25 1   
    11    6    7 1   
    12    6   32 1   
    13    6   33 1   
    14    7    8 1   
    15    7   35 1   
    16    7   36 1   
    17    8    9 1   
    18    8   37 1   
    19    8   38 1   
    20    9   10 1   
    21    9   39 1   
    22    9   40 1   
    23   10   11 1   
    24   10   41 1   
    25   10   42 1   
    26   11   12 1   
    27   11   43 1   
    28   11   44 1   
    29   12   13 1   
    30   12   45 1   
    31   12   46 1   
    32   13   14 1   
    33   13   47 1   
    34   13   48 1   
    35   14   15 1   
    36   14   49 1   
    37   14   50 1   
    38   15   16 1   
    39   15   51 1   
    40   15   52 1   
    41   16   17 1   
    42   16   53 1   
    43   16   54 1   
    44   17   18 1   
    45   17   55 1   
    46   17   56 1   
    47   18   19 1   
    48   18   57 1   
    49   18   58 1   
    50   19   20 1   
    51   19   59 1   
    52   19   60 1   
    53   20   21 1   
    54   20   61 1   
    55   20   62 1   
    56   21   22 1   
    57   21   63 1   
    58   21   64 1   
    59   22   65 1   
    60   22   66 1   
    61   22   67 1   
    62   23   25 1   
    63   23   26 1   
    64   23   68 1   
    65   23   69 1   
    66   24   25 1   
    67   24   27 1   
    68   24   72 1   
    69   24   73 1   
    70   25   34 1   
    71   26   70 1   
    72   27   71 1   
@<TRIPOS>SUBSTRUCTURE
     1 G2A         1 TEMP              0 ****  ****    0 ROOT
