@<TRIPOS>MOLECULE
molecule
   46    48     1     0     0
SMALL
bcc


@<TRIPOS>ATOM
      1 N1           0.0000     0.0000     0.0000 ns         1 G2C      -0.479400
      2 C2           1.3630     0.0000     0.0000 cc         1 G2C       0.089800
      3 N2           2.0300    -0.0000    -1.1990 nz         1 G2C      -0.611600
      4 N3           2.0570     0.0000     1.1160 nd         1 G2C      -0.737100
      5 C4           1.4500     0.0000     2.3090 cd         1 G2C       0.143800
      6 C5           0.0520    -0.0000     2.3750 cc         1 G2C       0.074800
      7 C6          -0.6830    -0.0000     1.1670 c          1 G2C       0.679000
      8 O6          -1.9030     0.0010     1.1770 o          1 G2C      -0.721500
      9 N7          -0.2880     0.0000     3.6870 nc         1 G2C      -0.640000
     10 C8           0.7910    -0.0010     4.4120 cd         1 G2C       0.384400
     11 N9           1.8910    -0.0000     3.6040 na         1 G2C      -0.241900
     12 PA           4.5210    -1.6810     9.5360 p5         1 G2C       1.437800
     13 PB           4.4490    -4.3770    10.7650 p5         1 G2C       1.240600
     14 PG           4.6650    -7.2630    11.4620 p5         1 G2C       0.968700
     15 C1'          3.2890    -0.0010     4.0440 c3         1 G2C       0.266800
     16 O1A          5.6570    -0.9020    10.3700 o          1 G2C      -0.835500
     17 O1B          5.2030    -3.9900    12.1340 o          1 G2C      -0.646500
     18 Cl1B         4.1850    -6.4410     8.6590 cl         1 G2C      -0.156400
     19 O1G          5.1770    -8.7040    10.9550 o          1 G2C      -0.592500
     20 C2'          3.8270     1.4430     4.0800 c3         1 G2C      -0.159400
     21 O2A          3.1890    -1.3520    10.0910 o          1 G2C      -0.835500
     22 O2B          2.9900    -4.4290    11.0040 o          1 G2C      -0.646500
     23 Cl2B         6.8070    -5.9440     9.9010 cl         1 G2C      -0.156400
     24 O2G          5.4190    -6.8770    12.8300 o          1 G2C      -0.592500
     25 C3'          4.2730     1.6430     5.5500 c3         1 G2C       0.099100
     26 O3'          5.5090     2.3590     5.6130 oh         1 G2C      -0.601800
     27 O3A          4.7710    -3.2680     9.6440 os         1 G2C      -0.707800
     28 C3B          5.0300    -6.0070    10.1920 c3         1 G2C       0.028400
     29 O3G          3.2050    -7.3160    11.7000 o          1 G2C      -0.592500
     30 C4'          4.4540     0.1830     6.0370 c3         1 G2C       0.135100
     31 O4'          3.3820    -0.5260     5.3780 os         1 G2C      -0.378600
     32 C5'          4.3010     0.1000     7.5570 c3         1 G2C       0.241400
     33 O5'          4.5840    -1.2310     7.9920 os         1 G2C      -0.598200
     34 HN1         -0.4980     0.0000    -0.8680 hn         1 G2C       0.269500
     35 HN2          1.7540    -0.8000    -1.7340 hn         1 G2C       0.350467
     36 HN2A         3.0160    -0.0340    -1.0320 hn         1 G2C       0.350467
     37 H8           0.8140    -0.0020     5.4950 h5         1 G2C       0.073100
     38 H1'          3.8920    -0.6000     3.3710 h2         1 G2C       0.062700
     39 H2'          4.6720     1.5480     3.4110 hc         1 G2C       0.055700
     40 H2'A         3.0420     2.1450     3.8250 hc         1 G2C       0.055700
     41 H3'          3.5000     2.1440     6.1200 h1         1 G2C       0.051700
     42 HO3'         5.3360     3.2690     5.7890 ho         1 G2C       0.387000
     43 H4'          5.4150    -0.2050     5.7220 h1         1 G2C       0.066700
     44 H5'          4.9910     0.7890     8.0280 h1         1 G2C       0.036700
     45 H5'A         3.2860     0.3610     7.8330 h1         1 G2C       0.036700
     46 H23          1.8020     0.8310    -1.7080 hn         1 G2C       0.350467
@<TRIPOS>BOND
     1     1     2 1
     2     1     7 1
     3     1    34 1
     4     2     3 1
     5     2     4 2
     6     3    35 1
     7     3    36 1
     8     4     5 1
     9     5     6 2
    10     5    11 1
    11     6     7 1
    12     6     9 1
    13     7     8 2
    14     9    10 2
    15    10    11 1
    16    10    37 1
    17    11    15 1
    18    12    16 1
    19    12    21 1
    20    12    27 1
    21    12    33 1
    22    13    17 1
    23    13    22 1
    24    13    27 1
    25    13    28 1
    26    14    19 1
    27    14    24 1
    28    14    28 1
    29    14    29 1
    30    15    20 1
    31    15    31 1
    32    15    38 1
    33    18    28 1
    34    20    25 1
    35    20    39 1
    36    20    40 1
    37    23    28 1
    38    25    26 1
    39    25    30 1
    40    25    41 1
    41    26    42 1
    42    30    31 1
    43    30    32 1
    44    30    43 1
    45    32    33 1
    46    32    44 1
    47    32    45 1
    48    46     3 1
@<TRIPOS>SUBSTRUCTURE
     1 G2C         1 TEMP              0 ****  ****    0 ROOT
