@<TRIPOS>MOLECULE
G2C
   46    48     1     0     0
SMALL
bcc


@<TRIPOS>ATOM
      1 N1          0.0000    0.0000    0.0000 ns        1 G2C     -0.018400
      2 C2          1.3630    0.0000    0.0000 cc        1 G2C     -0.399200
      3 N2          2.0300   -0.0000   -1.1990 nz        1 G2C      0.363400
      4 N3          2.0570    0.0000    1.1160 nd        1 G2C     -0.723100
      5 C4          1.4500    0.0000    2.3090 cd        1 G2C      0.007800
      6 C5          0.0520   -0.0000    2.3750 cc        1 G2C     -0.053200
      7 C6         -0.6830   -0.0000    1.1670 c         1 G2C      0.604000
      8 O6         -1.9030    0.0010    1.1770 o         1 G2C     -0.818500
      9 N7         -0.2880    0.0000    3.6870 nc        1 G2C     -0.529000
     10 C8          0.7910   -0.0010    4.4120 cd        1 G2C      0.132400
     11 N9          1.8910   -0.0000    3.6040 na        1 G2C      0.164100
     12 PA          4.5210   -1.6810    9.5360 p5        1 G2C      0.972800
     13 PB          4.4490   -4.3770   10.7650 p5        1 G2C      0.701600
     14 PG          4.6650   -7.2630   11.4620 p5        1 G2C      0.499700
     15 C1'         3.2890   -0.0010    4.0440 c3        1 G2C      0.185800
     16 O1A         5.6570   -0.9020   10.3700 o         1 G2C     -0.666500
     17 O1B         5.2030   -3.9900   12.1340 o         1 G2C     -0.444500
     18 Cl1B        4.1850   -6.4410    8.6590 cl        1 G2C     -0.064400
     19 O1G         5.1770   -8.7040   10.9550 o         1 G2C     -0.478167
     20 C2'         3.8270    1.4430    4.0800 c3        1 G2C     -0.117400
     21 O2A         3.1890   -1.3520   10.0910 o         1 G2C     -0.666500
     22 O2B         2.9900   -4.4290   11.0040 o         1 G2C     -0.444500
     23 Cl2B        6.8070   -5.9440    9.9010 cl        1 G2C     -0.064400
     24 O2G         5.4190   -6.8770   12.8300 o         1 G2C     -0.478167
     25 C3'         4.2730    1.6430    5.5500 c3        1 G2C      0.145100
     26 O3'         5.5090    2.3590    5.6130 oh        1 G2C     -0.587800
     27 O3A         4.7710   -3.2680    9.6440 os        1 G2C     -0.500800
     28 C3B         5.0300   -6.0070   10.1920 c3        1 G2C      0.425400
     29 O3G         3.2050   -7.3160   11.7000 o         1 G2C     -0.478167
     30 C4'         4.4540    0.1830    6.0370 c3        1 G2C      0.152100
     31 O4'         3.3820   -0.5260    5.3780 os        1 G2C     -0.370600
     32 C5'         4.3010    0.1000    7.5570 c3        1 G2C      0.314400
     33 O5'         4.5840   -1.2310    7.9920 os        1 G2C     -0.500200
     34 HN1        -0.4980    0.0000   -0.8680 hn        1 G2C      0.100500
     35 HN2         1.8110    0.8370   -1.7020 hn        1 G2C      0.052800
     36 HN2A        1.7490   -0.7960   -1.7370 hn        1 G2C      0.052800
     37 H8          0.8140   -0.0020    5.4950 h5        1 G2C      0.019100
     38 H1'         3.8920   -0.6000    3.3710 h2        1 G2C      0.020700
     39 H2'         4.6720    1.5480    3.4110 hc        1 G2C      0.027200
     40 H2'A        3.0420    2.1450    3.8250 hc        1 G2C      0.027200
     41 H3'         3.5000    2.1440    6.1200 h1        1 G2C      0.015700
     42 HO3'        5.3370    3.2680    5.7960 ho        1 G2C      0.369000
     43 H4'         5.4150   -0.2050    5.7220 h1        1 G2C      0.021700
     44 H5'         3.2860    0.3610    7.8330 h1        1 G2C     -0.015300
     45 H5'A        4.9910    0.7890    8.0280 h1        1 G2C     -0.015300
     46 H23         3.0160   -0.0420   -1.0320 hn        1 G2C      0.052800
@<TRIPOS>BOND
     1    1    2 1   
     2    1    7 1   
     3    1   34 1   
     4    2    3 1   
     5    2    4 2   
     6    3   35 1   
     7    3   36 1   
     8    3   46 1   
     9    4    5 1   
    10    5    6 2   
    11    5   11 1   
    12    6    7 1   
    13    6    9 1   
    14    7    8 2   
    15    9   10 2   
    16   10   11 1   
    17   10   37 1   
    18   11   15 1   
    19   12   16 1   
    20   12   21 1   
    21   12   27 1   
    22   12   33 1   
    23   13   17 1   
    24   13   22 1   
    25   13   27 1   
    26   13   28 1   
    27   14   19 1   
    28   14   24 1   
    29   14   28 1   
    30   14   29 1   
    31   15   20 1   
    32   15   31 1   
    33   15   38 1   
    34   18   28 1   
    35   20   25 1   
    36   20   39 1   
    37   20   40 1   
    38   23   28 1   
    39   25   26 1   
    40   25   30 1   
    41   25   41 1   
    42   26   42 1   
    43   30   31 1   
    44   30   32 1   
    45   30   43 1   
    46   32   33 1   
    47   32   44 1   
    48   32   45 1   
@<TRIPOS>SUBSTRUCTURE
     1 G2C         1 TEMP              0 ****  ****    0 ROOT
