@<TRIPOS>MOLECULE
molecule
   54    58     1     0     0
SMALL
bcc


@<TRIPOS>ATOM
      1 C05          0.0000     0.0000     0.0000 ca         1 G2D      -0.106000
      2 C06          1.3830     0.0000     0.0000 ca         1 G2D      -0.089300
      3 C13         -2.8240     0.0010     4.9490 c3         1 G2D       0.168000
      4 C18         -6.4830    -0.0940     4.5150 ca         1 G2D      -0.122000
      5 C17         -5.1440    -0.4070     4.6890 ca         1 G2D      -0.086300
      6 C16         -4.2000     0.6020     4.7590 ca         1 G2D      -0.126300
      7 C15         -4.4650    -1.7540     4.8270 c3         1 G2D      -0.040100
      8 C19         -6.8840     1.2210     4.4120 ca         1 G2D      -0.116000
      9 C20         -5.9370     2.2420     4.4810 ca         1 G2D      -0.101500
     10 C21         -6.3590     3.6590     4.3720 cc         1 G2D       0.372800
     11 C22         -7.6380     4.1110     4.2980 cd         1 G2D      -0.234600
     12 C24         -6.2640     5.8180     4.2340 cd         1 G2D       0.389800
     13 C11          1.3950    -0.0000     2.4030 ca         1 G2D      -0.158000
     14 C03         -0.0010     0.0000     2.4030 ca         1 G2D      -0.114600
     15 C04         -0.6940     0.0010     1.1920 ca         1 G2D      -0.139000
     16 C27         -8.4270     6.6650     4.0950 c3         1 G2D       0.041300
     17 O01         -0.1350     0.0010     4.7360 o          1 G2D      -0.615100
     18 C07          2.1340    -0.0000    -1.3060 c3         1 G2D      -0.039800
     19 C08          2.0810     0.0000     1.2000 ca         1 G2D       0.128100
     20 O09          3.4410     0.0000     1.1950 os         1 G2D      -0.328900
     21 C10          4.0950     0.0010     2.4650 c3         1 G2D       0.125700
     22 N12         -2.0890     0.0010     3.6810 ns         1 G2D      -0.571900
     23 C14         -3.0760    -1.4450     5.4250 c3         1 G2D      -0.092400
     24 N23         -7.5690     5.4770     4.2080 na         1 G2D      -0.204900
     25 C25         -6.1230     7.3250     4.1430 c3         1 G2D      -0.098700
     26 C26         -7.5310     7.8600     4.4860 c3         1 G2D      -0.097400
     27 N28         -5.5440     4.7310     4.3340 nc         1 G2D      -0.677000
     28 C29         -4.5920     1.9240     4.6550 ca         1 G2D      -0.072000
     29 H1          -0.5400     0.0000    -0.9390 ha         1 G2D       0.137000
     30 H2          -2.2780     0.5530     5.7050 h1         1 G2D       0.089700
     31 H3          -7.2190    -0.8880     4.4610 ha         1 G2D       0.129000
     32 H4          -4.3480    -2.2030     3.8480 hc         1 G2D       0.054700
     33 H5          -5.0260    -2.3750     5.5140 hc         1 G2D       0.054700
     34 H6          -7.9210     1.4570     4.2060 ha         1 G2D       0.128000
     35 H7          -8.5180     3.5050     4.1200 h4         1 G2D       0.174000
     36 H8           1.9390    -0.0000     3.3400 ha         1 G2D       0.162000
     37 H9          -1.7780     0.0010     1.1880 ha         1 G2D       0.127000
     38 H10         -9.2650     6.5870     4.7770 h1         1 G2D       0.060700
     39 H11          1.4280    -0.0010    -2.1280 hc         1 G2D       0.046367
     40 H12          2.7570    -0.8840    -1.3640 hc         1 G2D       0.046367
     41 H13          2.7560     0.8850    -1.3650 hc         1 G2D       0.046367
     42 H14          5.1680     0.0010     2.3190 h1         1 G2D       0.044700
     43 H15          3.8060     0.8850     3.0200 h1         1 G2D       0.044700
     44 H16          3.8070    -0.8840     3.0200 h1         1 G2D       0.044700
     45 H17         -2.5880     0.0230     2.8140 hn         1 G2D       0.320500
     46 H18         -3.1050    -1.4930     6.5060 hc         1 G2D       0.062700
     47 H19         -2.3280    -2.1170     5.0220 hc         1 G2D       0.062700
     48 H20         -5.8430     7.6180     3.1390 hc         1 G2D       0.070700
     49 H21         -7.6030     8.0310     5.5530 hc         1 G2D       0.069200
     50 H23         -3.8530     2.7130     4.7100 ha         1 G2D       0.157000
     51 H24         -8.7760     6.7780     3.0750 h1         1 G2D       0.060700
     52 H25         -5.3980     7.6800     4.8650 hc         1 G2D       0.070700
     53 H26         -7.7610     8.7070     3.8510 hc         1 G2D       0.069200
     54 C02         -0.7410     0.0010     3.6820 c          1 G2D       0.673700
@<TRIPOS>BOND
     1    18     2 1
     2     1     2 ar
     3     1    15 ar
     4     2    19 ar
     5    15    14 ar
     6    19    20 1
     7    19    13 ar
     8    20    21 1
     9    14    13 ar
    10    14    54 1
    11    54    22 1
    12    54    17 2
    13    22     3 1
    14    23     3 1
    15    23     7 1
    16     3     6 1
    17     7     5 1
    18     6     5 ar
    19     6    28 ar
    20     5     4 ar
    21    28     9 ar
    22     4     8 ar
    23     9     8 ar
    24     9    10 1
    25    27    10 1
    26    27    12 2
    27    10    11 2
    28    12    25 1
    29    12    24 1
    30    11    24 1
    31    25    26 1
    32    24    16 1
    33    16    26 1
    34     1    29 1
    35     3    30 1
    36     4    31 1
    37     7    32 1
    38     7    33 1
    39     8    34 1
    40    11    35 1
    41    13    36 1
    42    15    37 1
    43    16    38 1
    44    18    39 1
    45    18    40 1
    46    18    41 1
    47    21    42 1
    48    21    43 1
    49    21    44 1
    50    22    45 1
    51    23    46 1
    52    23    47 1
    53    25    48 1
    54    26    49 1
    55    28    50 1
    56    16    51 1
    57    25    52 1
    58    26    53 1
@<TRIPOS>SUBSTRUCTURE
     1 G2D         1 TEMP              0 ****  ****    0 ROOT
