@<TRIPOS>MOLECULE
G2D
   54    58     1     0     0
SMALL
bcc


@<TRIPOS>ATOM
      1 C05          0.0000     0.0000     0.0000 ca         1 G2D      -0.075000
      2 C06          1.3830     0.0000     0.0000 ca         1 G2D      -0.105300
      3 C13         -2.8240     0.0010     4.9490 c3         1 G2D       0.088000
      4 C18         -6.4830    -0.0940     4.5150 ca         1 G2D      -0.090000
      5 C17         -5.1440    -0.4070     4.6890 ca         1 G2D      -0.094300
      6 C16         -4.2000     0.6020     4.7590 ca         1 G2D      -0.136300
      7 C15         -4.4650    -1.7540     4.8270 c3         1 G2D       0.035900
      8 C19         -6.8840     1.2210     4.4120 ca         1 G2D      -0.095000
      9 C20         -5.9370     2.2420     4.4810 ca         1 G2D      -0.099500
     10 C21         -6.3590     3.6590     4.3720 cc         1 G2D       0.351800
     11 C22         -7.6380     4.1110     4.2980 cd         1 G2D      -0.392600
     12 C24         -6.2640     5.8180     4.2340 cd         1 G2D       0.189800
     13 C11          1.3950    -0.0000     2.4030 ca         1 G2D      -0.141000
     14 C03         -0.0010     0.0000     2.4030 ca         1 G2D      -0.119600
     15 C04         -0.6940     0.0010     1.1920 ca         1 G2D      -0.124000
     16 C27         -8.4270     6.6650     4.0950 c3         1 G2D      -0.031700
     17 O01         -0.1350     0.0010     4.7360 o          1 G2D      -0.657100
     18 C07          2.1340    -0.0000    -1.3060 c3         1 G2D       0.071200
     19 C08          2.0810     0.0000     1.2000 ca         1 G2D       0.137100
     20 O09          3.4410     0.0000     1.1950 os         1 G2D      -0.307900
     21 C10          4.0950     0.0010     2.4650 c3         1 G2D       0.240700
     22 N12         -2.0890     0.0010     3.6810 ns         1 G2D      -0.184900
     23 C14         -3.0760    -1.4450     5.4250 c3         1 G2D      -0.039400
     24 N23         -7.5690     5.4770     4.2080 na         1 G2D       0.257100
     25 C25         -6.1230     7.3250     4.1430 c3         1 G2D      -0.026700
     26 C26         -7.5310     7.8600     4.4860 c3         1 G2D      -0.033400
     27 N28         -5.5440     4.7310     4.3340 nc         1 G2D      -0.582000
     28 C29         -4.5920     1.9240     4.6550 ca         1 G2D      -0.045000
     29 H1          -0.5400     0.0000    -0.9390 ha         1 G2D       0.108000
     30 H2          -2.2780     0.5530     5.7050 h1         1 G2D       0.061700
     31 H3          -7.2190    -0.8880     4.4610 ha         1 G2D       0.102000
     32 H4          -4.3480    -2.2030     3.8480 hc         1 G2D       0.021700
     33 H5          -5.0260    -2.3750     5.5140 hc         1 G2D       0.021700
     34 H6          -7.9210     1.4570     4.2060 ha         1 G2D       0.104000
     35 H7          -8.5180     3.5050     4.1200 h4         1 G2D       0.152000
     36 H8           1.9390    -0.0000     3.3400 ha         1 G2D       0.145000
     37 H9          -1.7780     0.0010     1.1880 ha         1 G2D       0.105000
     38 H10         -9.2650     6.5870     4.7770 h1         1 G2D       0.028700
     39 H11          1.4280    -0.0010    -2.1280 hc         1 G2D       0.009700
     40 H12          2.7570    -0.8840    -1.3640 hc         1 G2D       0.009700
     41 H13          2.7560     0.8850    -1.3650 hc         1 G2D       0.009700
     42 H14          5.1680     0.0010     2.3190 h1         1 G2D       0.000700
     43 H15          3.8060     0.8850     3.0200 h1         1 G2D       0.000700
     44 H16          3.8070    -0.8840     3.0200 h1         1 G2D       0.000700
     45 H17         -2.5880     0.0230     2.8140 hn         1 G2D       0.182500
     46 H18         -3.1050    -1.4930     6.5060 hc         1 G2D       0.031200
     47 H19         -2.3280    -2.1170     5.0220 hc         1 G2D       0.031200
     48 H20         -5.8430     7.6180     3.1390 hc         1 G2D       0.031700
     49 H21         -7.6030     8.0310     5.5530 hc         1 G2D       0.035200
     50 H23         -3.8530     2.7130     4.7100 ha         1 G2D       0.127000
     51 H24         -8.7760     6.7780     3.0750 h1         1 G2D       0.028700
     52 H25         -5.3980     7.6800     4.8650 hc         1 G2D       0.031700
     53 H26         -7.7610     8.7070     3.8510 hc         1 G2D       0.035200
     54 C02         -0.7410     0.0010     3.6820 c          1 G2D       0.596700
@<TRIPOS>BOND
     1     1     2 ar  
     2     1    15 ar  
     3     1    29 1   
     4     2    18 1   
     5     2    19 ar  
     6     3     6 1   
     7     3    22 1   
     8     3    23 1   
     9     3    30 1   
    10     4     5 ar  
    11     4     8 ar  
    12     4    31 1   
    13     5     6 ar  
    14     5     7 1   
    15     6    28 ar  
    16     7    23 1   
    17     7    32 1   
    18     7    33 1   
    19     8     9 ar  
    20     8    34 1   
    21     9    10 1   
    22     9    28 ar  
    23    10    11 2   
    24    10    27 1   
    25    11    24 1   
    26    11    35 1   
    27    12    24 1   
    28    12    25 1   
    29    12    27 2   
    30    13    14 ar  
    31    13    19 ar  
    32    13    36 1   
    33    14    15 ar  
    34    14    54 1   
    35    15    37 1   
    36    16    24 1   
    37    16    26 1   
    38    16    38 1   
    39    16    51 1   
    40    17    54 2   
    41    18    39 1   
    42    18    40 1   
    43    18    41 1   
    44    19    20 1   
    45    20    21 1   
    46    21    42 1   
    47    21    43 1   
    48    21    44 1   
    49    22    45 1   
    50    22    54 1   
    51    23    46 1   
    52    23    47 1   
    53    25    26 1   
    54    25    48 1   
    55    25    52 1   
    56    26    49 1   
    57    26    53 1   
    58    28    50 1   
@<TRIPOS>SUBSTRUCTURE
     1 G2D         1 TEMP              0 ****  ****    0 ROOT
