@<TRIPOS>MOLECULE
molecule
   82    87     1     0     0
SMALL
bcc


@<TRIPOS>ATOM
      1 C3           0.0000     0.0000     0.0000 ca         1 G2G      -0.079000
      2 C2          -9.0870     1.2080    -0.6320 cc         1 G2G       0.240000
      3 N1          -8.3710     0.6820     0.4480 ns         1 G2G      -0.465500
      4 C7           1.3830     0.0000     0.0000 ca         1 G2G      -0.249300
      5 C8          -4.2570     0.9230     0.5940 ca         1 G2G      -0.123000
      6 C10         -8.5440     1.6330    -1.8520 cc         1 G2G      -0.257000
      7 C25         -4.9470     0.0220     1.3780 ca         1 G2G       0.036600
      8 C26         -4.9120    -1.8560     2.9540 ca         1 G2G      -0.142000
      9 C27         -4.1970    -2.7580     3.6830 ca         1 G2G      -0.102000
     10 C9           5.5060     1.4050     1.5800 c3         1 G2G       0.121300
     11 C12         -9.5600     2.0690    -2.6330 cd         1 G2G       0.099800
     12 C13        -11.2900     1.0920     0.3150 ca         1 G2G      -0.090200
     13 C14         -9.4320     2.6150    -4.0320 c3         1 G2G      -0.021800
     14 C15        -10.2410     1.7440    -4.9950 c3         1 G2G      -0.088433
     15 C16         -9.9650     4.0490    -4.0710 c3         1 G2G      -0.088433
     16 C17         -7.9600     2.6060    -4.4500 c3         1 G2G      -0.088433
     17 C18        -11.1970    -0.1170     1.0050 ca         1 G2G      -0.115000
     18 C19        -12.2930     2.0040     0.6490 ca         1 G2G      -0.115000
     19 C20        -13.1890     1.7020     1.6540 ca         1 G2G      -0.104500
     20 C21        -12.0960    -0.4050     2.0120 ca         1 G2G      -0.104500
     21 N7         -10.3950     1.3860    -0.6850 na         1 G2G       0.020200
     22 N8         -10.7100     1.9280    -1.9380 na         1 G2G      -0.359800
     23 C24         -7.0320     0.5540     0.3710 c          1 G2G       0.785100
     24 O1          -6.4460     0.8950    -0.6390 o          1 G2G      -0.610100
     25 N4          -6.3420     0.0470     1.4110 ns         1 G2G      -0.447100
     26 C4          -4.2380    -0.9260     2.1470 ca         1 G2G      -0.038000
     27 C5          -2.8230    -0.9400     2.1040 ca         1 G2G      -0.014000
     28 C6          -2.1440    -0.0030     1.2900 cp         1 G2G      -0.013000
     29 C28         -2.8060    -2.7710     3.6410 ca         1 G2G      -0.120000
     30 C29         -2.1200    -1.8830     2.8680 ca         1 G2G      -0.107000
     31 C30         -2.8710     0.9130     0.5490 ca         1 G2G      -0.107000
     32 C37          0.0920    -0.0020     2.4040 ca         1 G2G       0.432200
     33 C1          -0.6640    -0.0020     1.2310 cp         1 G2G      -0.183300
     34 C36          2.0600     0.0000     1.2070 ca         1 G2G       0.443600
     35 N2           1.4070    -0.0010     2.3530 nb         1 G2G      -0.667000
     36 C23          3.5670    -0.0000     1.2120 c3         1 G2G       0.114500
     37 N3           4.0560     1.3800     1.3340 n3         1 G2G      -0.717600
     38 C31          3.7170     2.1670     0.1400 c3         1 G2G       0.121300
     39 C32          4.1910     3.6100     0.3340 c3         1 G2G       0.140400
     40 C33          5.9610     2.8550     1.7600 c3         1 G2G       0.140400
     41 O2           5.5960     3.6130     0.6040 os         1 G2G      -0.422600
     42 C34        -13.0940     0.4980     2.3300 ca         1 G2G      -0.032300
     43 H3          -0.5550    -0.0000    -0.9300 ha         1 G2G       0.142000
     44 HN1         -8.8490     0.4330     1.2910 hn         1 G2G       0.345500
     45 H7           1.9310     0.0010    -0.9350 ha         1 G2G       0.145000
     46 H8          -4.8060     1.6490     0.0060 ha         1 G2G       0.163000
     47 H10         -7.4990     1.5840    -2.1360 ha         1 G2G       0.247000
     48 H26         -5.9940    -1.8570     2.9970 ha         1 G2G       0.112000
     49 H27         -4.7190    -3.4740     4.3060 ha         1 G2G       0.135000
     50 H91          5.7280     0.8430     2.4790 h1         1 G2G       0.043700
     51 H92          6.0230     0.9670     0.7350 h1         1 G2G       0.043700
     52 H151       -11.2980     1.8610    -4.7870 hc         1 G2G       0.055478
     53 H152       -10.0380     2.0490    -6.0150 hc         1 G2G       0.055478
     54 H153        -9.9600     0.7060    -4.8660 hc         1 G2G       0.055478
     55 H161        -9.7450     4.4900    -5.0350 hc         1 G2G       0.055478
     56 H162        -9.4900     4.6320    -3.2910 hc         1 G2G       0.055478
     57 H163       -11.0370     4.0410    -3.9140 hc         1 G2G       0.055478
     58 H171        -7.5860     1.5890    -4.4330 hc         1 G2G       0.055478
     59 H172        -7.3850     3.2140    -3.7620 hc         1 G2G       0.055478
     60 H173        -7.8660     3.0080    -5.4520 hc         1 G2G       0.055478
     61 H18        -10.4190    -0.8270     0.7530 ha         1 G2G       0.146500
     62 H19        -12.3690     2.9450     0.1190 ha         1 G2G       0.146500
     63 H20        -13.9700     2.4070     1.9110 ha         1 G2G       0.163500
     64 H21        -12.0260    -1.3450     2.5460 ha         1 G2G       0.163500
     65 H221       -15.0350    -0.0760     2.9910 hc         1 G2G       0.064367
     66 H222       -14.1880     1.0360     4.0760 hc         1 G2G       0.064367
     67 H223       -13.7100    -0.6650     4.0040 hc         1 G2G       0.064367
     68 HN8        -11.6270     2.1680    -2.2610 hn         1 G2G       0.525800
     69 HN4         -6.8280    -0.2750     2.2240 hn         1 G2G       0.329500
     70 H28         -2.2610    -3.4990     4.2300 ha         1 G2G       0.143000
     71 H29         -1.0370    -1.9050     2.8440 ha         1 G2G       0.156000
     72 H30         -2.3510     1.6310    -0.0740 ha         1 G2G       0.146000
     73 H37         -0.4080    -0.0030     3.3650 h4         1 G2G       0.032100
     74 H231         3.9250    -0.5860     2.0490 h1         1 G2G       0.053200
     75 H232         3.9310    -0.4320     0.2870 h1         1 G2G       0.053200
     76 H311         2.6440     2.1570    -0.0060 h1         1 G2G       0.043700
     77 H312         4.2090     1.7400    -0.7250 h1         1 G2G       0.043700
     78 H321         3.9960     4.1780    -0.5670 h1         1 G2G       0.055950
     79 H322         3.6630     4.0540     1.1700 h1         1 G2G       0.055950
     80 H331         7.0370     2.8820     1.8830 h1         1 G2G       0.055950
     81 H332         5.4810     3.2780     2.6340 h1         1 G2G       0.055950
     82 C22        -14.0760     0.1760     3.4280 c3         1 G2G      -0.060800
@<TRIPOS>BOND
     1     1    33 ar
     2     1     4 ar
     3     1    43 1
     4     2    21 1
     5     2     6 1
     6     2     3 2
     7     3    23 1
     8     3    44 1
     9     4    34 ar
    10     4    45 1
    11     5     7 ar
    12     5    31 ar
    13     5    46 1
    14     6    11 2
    15     6    47 1
    16     7    25 1
    17     7    26 ar
    18     8     9 ar
    19     8    26 ar
    20     8    48 1
    21     9    29 ar
    22     9    49 1
    23    10    37 1
    24    10    40 1
    25    10    50 1
    26    10    51 1
    27    11    13 1
    28    11    22 1
    29    12    18 ar
    30    12    21 1
    31    12    17 ar
    32    13    16 1
    33    13    15 1
    34    13    14 1
    35    14    52 1
    36    14    53 1
    37    14    54 1
    38    15    55 1
    39    15    56 1
    40    15    57 1
    41    16    58 1
    42    16    59 1
    43    16    60 1
    44    17    20 ar
    45    17    61 1
    46    18    19 ar
    47    18    62 1
    48    19    42 ar
    49    19    63 1
    50    20    42 ar
    51    20    64 1
    52    82    42 1
    53    82    65 1
    54    82    66 1
    55    82    67 1
    56    21    22 1
    57    22    68 1
    58    23    24 2
    59    23    25 1
    60    25    69 1
    61    26    27 ar
    62    27    30 ar
    63    27    28 ar
    64    28    31 ar
    65    28    33 1
    66    29    30 ar
    67    29    70 1
    68    30    71 1
    69    31    72 1
    70    32    33 ar
    71    32    35 ar
    72    32    73 1
    73    34    35 ar
    74    34    36 1
    75    36    37 1
    76    36    74 1
    77    36    75 1
    78    37    38 1
    79    38    39 1
    80    38    76 1
    81    38    77 1
    82    39    41 1
    83    39    78 1
    84    39    79 1
    85    40    41 1
    86    40    80 1
    87    40    81 1
@<TRIPOS>SUBSTRUCTURE
     1 G2G         1 TEMP              0 ****  ****    0 ROOT
