@<TRIPOS>MOLECULE
G2G
   82    87     1     0     0
SMALL
bcc


@<TRIPOS>ATOM
      1 C3           0.0000     0.0000     0.0000 ca         1 G2G      -0.057000
      2 C2          -9.0870     1.2080    -0.6320 cc         1 G2G       0.027400
      3 N1          -8.3710     0.6820     0.4480 ns         1 G2G      -0.014500
      4 C7           1.3830     0.0000     0.0000 ca         1 G2G      -0.213300
      5 C8          -4.2570     0.9230     0.5940 ca         1 G2G      -0.094000
      6 C10         -8.5440     1.6330    -1.8520 cc         1 G2G      -0.313600
      7 C25         -4.9470     0.0220     1.3780 ca         1 G2G      -0.126400
      8 C26         -4.9120    -1.8560     2.9540 ca         1 G2G      -0.128000
      9 C27         -4.1970    -2.7580     3.6830 ca         1 G2G      -0.067000
     10 C9           5.5060     1.4050     1.5800 c3         1 G2G       0.105300
     11 C12         -9.5600     2.0690    -2.6330 cd         1 G2G       0.007800
     12 C13        -11.2900     1.0920     0.3150 ca         1 G2G      -0.279200
     13 C14         -9.4320     2.6150    -4.0320 c3         1 G2G      -0.005800
     14 C15        -10.2410     1.7440    -4.9950 c3         1 G2G       0.004900
     15 C16         -9.9650     4.0490    -4.0710 c3         1 G2G       0.004900
     16 C17         -7.9600     2.6060    -4.4500 c3         1 G2G       0.004900
     17 C18        -11.1970    -0.1170     1.0050 ca         1 G2G      -0.072000
     18 C19        -12.2930     2.0040     0.6490 ca         1 G2G      -0.072000
     19 C20        -13.1890     1.7020     1.6540 ca         1 G2G      -0.074000
     20 C21        -12.0960    -0.4050     2.0120 ca         1 G2G      -0.074000
     21 N7         -10.3950     1.3860    -0.6850 na         1 G2G       0.477900
     22 N8         -10.7100     1.9280    -1.9380 na         1 G2G      -0.227300
     23 C24         -7.0320     0.5540     0.3710 c          1 G2G       0.540100
     24 O1          -6.4460     0.8950    -0.6390 o          1 G2G      -0.658100
     25 N4          -6.3420     0.0470     1.4110 ns         1 G2G       0.018900
     26 C4          -4.2380    -0.9260     2.1470 ca         1 G2G      -0.029000
     27 C5          -2.8230    -0.9400     2.1040 ca         1 G2G      -0.014000
     28 C6          -2.1440    -0.0030     1.2900 cp         1 G2G       0.006000
     29 C28         -2.8060    -2.7710     3.6410 ca         1 G2G      -0.093000
     30 C29         -2.1200    -1.8830     2.8680 ca         1 G2G      -0.087000
     31 C30         -2.8710     0.9130     0.5490 ca         1 G2G      -0.085000
     32 C37          0.0920    -0.0020     2.4040 ca         1 G2G       0.405200
     33 C1          -0.6640    -0.0020     1.2310 cp         1 G2G      -0.173300
     34 C36          2.0600     0.0000     1.2070 ca         1 G2G       0.384600
     35 N2           1.4070    -0.0010     2.3530 nb         1 G2G      -0.547000
     36 C23          3.5670    -0.0000     1.2120 c3         1 G2G       0.106500
     37 N3           4.0560     1.3800     1.3340 n3         1 G2G      -0.526600
     38 C31          3.7170     2.1670     0.1400 c3         1 G2G       0.105300
     39 C32          4.1910     3.6100     0.3340 c3         1 G2G       0.215400
     40 C33          5.9610     2.8550     1.7600 c3         1 G2G       0.215400
     41 O2           5.5960     3.6130     0.6040 os         1 G2G      -0.409600
     42 C34        -13.0940     0.4980     2.3300 ca         1 G2G      -0.020300
     43 H3          -0.5550    -0.0000    -0.9300 ha         1 G2G       0.114000
     44 HN1         -8.8490     0.4330     1.2910 hn         1 G2G       0.183500
     45 H7           1.9310     0.0010    -0.9350 ha         1 G2G       0.122000
     46 H8          -4.8060     1.6490     0.0060 ha         1 G2G       0.146000
     47 H10         -7.4990     1.5840    -2.1360 ha         1 G2G       0.229000
     48 H26         -5.9940    -1.8570     2.9970 ha         1 G2G       0.090000
     49 H27         -4.7190    -3.4740     4.3060 ha         1 G2G       0.105000
     50 H91          5.7280     0.8430     2.4790 h1         1 G2G       0.018200
     51 H92          6.0230     0.9670     0.7350 h1         1 G2G       0.018200
     52 H151       -11.2980     1.8610    -4.7870 hc         1 G2G       0.019256
     53 H152       -10.0380     2.0490    -6.0150 hc         1 G2G       0.019256
     54 H153        -9.9600     0.7060    -4.8660 hc         1 G2G       0.019256
     55 H161        -9.7450     4.4900    -5.0350 hc         1 G2G       0.019256
     56 H162        -9.4900     4.6320    -3.2910 hc         1 G2G       0.019256
     57 H163       -11.0370     4.0410    -3.9140 hc         1 G2G       0.019256
     58 H171        -7.5860     1.5890    -4.4330 hc         1 G2G       0.019256
     59 H172        -7.3850     3.2140    -3.7620 hc         1 G2G       0.019256
     60 H173        -7.8660     3.0080    -5.4520 hc         1 G2G       0.019256
     61 H18        -10.4190    -0.8270     0.7530 ha         1 G2G       0.115500
     62 H19        -12.3690     2.9450     0.1190 ha         1 G2G       0.115500
     63 H20        -13.9700     2.4070     1.9110 ha         1 G2G       0.131500
     64 H21        -12.0260    -1.3450     2.5460 ha         1 G2G       0.131500
     65 H221       -15.0350    -0.0760     2.9910 hc         1 G2G       0.026367
     66 H222       -14.1880     1.0360     4.0760 hc         1 G2G       0.026367
     67 H223       -13.7100    -0.6650     4.0040 hc         1 G2G       0.026367
     68 HN8        -11.6270     2.1680    -2.2610 hn         1 G2G       0.353800
     69 HN4         -6.8280    -0.2750     2.2240 hn         1 G2G       0.167500
     70 H28         -2.2610    -3.4990     4.2300 ha         1 G2G       0.112000
     71 H29         -1.0370    -1.9050     2.8440 ha         1 G2G       0.132000
     72 H30         -2.3510     1.6310    -0.0740 ha         1 G2G       0.116000
     73 H37         -0.4080    -0.0030     3.3650 h4         1 G2G      -0.008900
     74 H231         3.9250    -0.5860     2.0490 h1         1 G2G       0.021700
     75 H232         3.9310    -0.4320     0.2870 h1         1 G2G       0.021700
     76 H311         2.6440     2.1570    -0.0060 h1         1 G2G       0.018200
     77 H312         4.2090     1.7400    -0.7250 h1         1 G2G       0.018200
     78 H321         3.9960     4.1780    -0.5670 h1         1 G2G       0.013950
     79 H322         3.6630     4.0540     1.1700 h1         1 G2G       0.013950
     80 H331         7.0370     2.8820     1.8830 h1         1 G2G       0.013950
     81 H332         5.4810     3.2780     2.6340 h1         1 G2G       0.013950
     82 C22        -14.0760     0.1760     3.4280 c3         1 G2G       0.049200
@<TRIPOS>BOND
     1     1     4 ar  
     2     1    33 ar  
     3     1    43 1   
     4     2     3 2   
     5     2     6 1   
     6     2    21 1   
     7     3    23 1   
     8     3    44 1   
     9     4    34 ar  
    10     4    45 1   
    11     5     7 ar  
    12     5    31 ar  
    13     5    46 1   
    14     6    11 2   
    15     6    47 1   
    16     7    25 1   
    17     7    26 ar  
    18     8     9 ar  
    19     8    26 ar  
    20     8    48 1   
    21     9    29 ar  
    22     9    49 1   
    23    10    37 1   
    24    10    40 1   
    25    10    50 1   
    26    10    51 1   
    27    11    13 1   
    28    11    22 1   
    29    12    17 ar  
    30    12    18 ar  
    31    12    21 1   
    32    13    14 1   
    33    13    15 1   
    34    13    16 1   
    35    14    52 1   
    36    14    53 1   
    37    14    54 1   
    38    15    55 1   
    39    15    56 1   
    40    15    57 1   
    41    16    58 1   
    42    16    59 1   
    43    16    60 1   
    44    17    20 ar  
    45    17    61 1   
    46    18    19 ar  
    47    18    62 1   
    48    19    42 ar  
    49    19    63 1   
    50    20    42 ar  
    51    20    64 1   
    52    21    22 1   
    53    22    68 1   
    54    23    24 2   
    55    23    25 1   
    56    25    69 1   
    57    26    27 ar  
    58    27    28 ar  
    59    27    30 ar  
    60    28    31 ar  
    61    28    33 1   
    62    29    30 ar  
    63    29    70 1   
    64    30    71 1   
    65    31    72 1   
    66    32    33 ar  
    67    32    35 ar  
    68    32    73 1   
    69    34    35 ar  
    70    34    36 1   
    71    36    37 1   
    72    36    74 1   
    73    36    75 1   
    74    37    38 1   
    75    38    39 1   
    76    38    76 1   
    77    38    77 1   
    78    39    41 1   
    79    39    78 1   
    80    39    79 1   
    81    40    41 1   
    82    40    80 1   
    83    40    81 1   
    84    42    82 1   
    85    65    82 1   
    86    66    82 1   
    87    67    82 1   
@<TRIPOS>SUBSTRUCTURE
     1 G2G         1 TEMP              0 ****  ****    0 ROOT
