@<TRIPOS>MOLECULE
molecule
   17    16     1     0     0
SMALL
bcc


@<TRIPOS>ATOM
      1 C1           0.0000     0.0000     0.0000 c3         1 G2H       0.126400
      2 C2           1.5300     0.0000     0.0000 c3         1 G2H       0.193100
      3 C3           2.0410     0.0000     1.4420 c3         1 G2H       0.126400
      4 P            2.8860    -0.6560    -1.9220 p5         1 G2H       1.147900
      5 O11         -0.4760     0.0010    -1.3460 oh         1 G2H      -0.563300
      6 O31          1.5640    -1.1660     2.1150 oh         1 G2H      -0.563300
      7 O1P          2.0050    -1.1650    -0.6750 os         1 G2H      -0.509200
      8 O2P          4.0160     0.1610    -1.4260 o          1 G2H      -0.909500
      9 O3P          3.4570    -1.9250    -2.7310 o          1 G2H      -0.909500
     10 O4P          1.9680     0.2330    -2.8990 o          1 G2H      -0.909500
     11 H11A        -0.3610    -0.8850     0.5100 h1         1 G2H      -0.003300
     12 H12         -0.3610     0.8840     0.5120 h1         1 G2H      -0.003300
     13 H2           1.8910     0.8850    -0.5100 h1         1 G2H       0.095700
     14 H31A         1.6800     0.8840     1.9530 h1         1 G2H      -0.003300
     15 H32          3.1240    -0.0000     1.4410 h1         1 G2H      -0.003300
     16 H11         -1.4160     0.0800    -1.3470 ho         1 G2H       0.344500
     17 H31          1.9430    -1.2080     2.9770 ho         1 G2H       0.344500
@<TRIPOS>BOND
     1     1     2 1
     2     1     5 1
     3     1    11 1
     4     1    12 1
     5     2     3 1
     6     2     7 1
     7     2    13 1
     8     3     6 1
     9     3    14 1
    10     3    15 1
    11     4     7 1
    12     4     8 1
    13     4     9 1
    14     4    10 1
    15     5    16 1
    16     6    17 1
@<TRIPOS>SUBSTRUCTURE
     1 G2H         1 TEMP              0 ****  ****    0 ROOT
