@<TRIPOS>MOLECULE
G2H
   17    16     1     0     0
SMALL
bcc


@<TRIPOS>ATOM
      1 C1         -0.0660    0.1320    0.1330 c3        1 G2H      0.127900
      2 C2          1.4750    0.0990    0.1100 c3        1 G2H      0.152100
      3 C3          1.9990    0.2000    1.5570 c3        1 G2H      0.127900
      4 P           2.7360   -0.8660   -1.9770 p5        1 G2H      1.318900
      5 O11        -0.6400    0.2020   -1.1480 oh        1 G2H     -0.683800
      6 O31         2.0000   -1.0500    2.2230 oh        1 G2H     -0.683800
      7 O1P         1.9250   -1.0770   -0.4460 os        1 G2H     -0.568200
      8 O2P         3.6780    0.2640   -1.6670 o         1 G2H     -0.921167
      9 O3P         3.3350   -2.2190   -2.2170 o         1 G2H     -0.921167
     10 O4P         1.5410   -0.4820   -2.8190 o         1 G2H     -0.921167
     11 H11A       -0.4530   -0.7870    0.6530 h1        1 G2H     -0.008050
     12 H12        -0.4270    1.0380    0.6940 h1        1 G2H     -0.008050
     13 H2          1.8550    0.9880   -0.4780 h1        1 G2H      0.063700
     14 H31A        1.3580    0.8760    2.1830 h1        1 G2H     -0.008050
     15 H32         3.0510    0.5920    1.5440 h1        1 G2H     -0.008050
     16 H11         0.0430   -0.1130   -1.8000 ho        1 G2H      0.470000
     17 H31         2.1130   -1.7250    1.5320 ho        1 G2H      0.470000
@<TRIPOS>BOND
     1    1    2 1   
     2    1    5 1   
     3    1   11 1   
     4    1   12 1   
     5    2    3 1   
     6    2    7 1   
     7    2   13 1   
     8    3    6 1   
     9    3   14 1   
    10    3   15 1   
    11    4    7 1   
    12    4    8 1   
    13    4    9 1   
    14    4   10 1   
    15    5   16 1   
    16    6   17 1   
@<TRIPOS>SUBSTRUCTURE
     1 G2H         1 TEMP              0 ****  ****    0 ROOT
