@<TRIPOS>MOLECULE
molecule
   57    61     1     0     0
SMALL
bcc


@<TRIPOS>ATOM
      1 O01          0.0000     0.0000     0.0000 o          1 G2J      -0.590100
      2 C02          1.2150     0.0000     0.0000 c          1 G2J       0.676700
      3 C03          1.9540     0.0000     1.2810 ca         1 G2J      -0.101600
      4 C04          3.0320    -0.8660     1.4690 ca         1 G2J      -0.156000
      5 C05          3.7190    -0.8630     2.6650 ca         1 G2J      -0.101000
      6 C06          3.3420    -0.0050     3.6820 ca         1 G2J      -0.208000
      7 C07          2.2710     0.8600     3.5050 ca         1 G2J       0.135100
      8 O08          1.9060     1.7020     4.5070 os         1 G2J      -0.324900
      9 C09          2.6670     1.6430     5.7150 c3         1 G2J       0.128700
     10 C10          1.5780     0.8700     2.3060 ca         1 G2J      -0.106000
     11 N11          1.8900    -0.0050    -1.1660 n          1 G2J      -0.478800
     12 C12          3.3490     0.1360    -1.1700 c3         1 G2J       0.117000
     13 C13          3.9520    -0.8360    -2.1860 cx         1 G2J      -0.161700
     14 C14          4.9010    -1.9130    -1.6560 cx         1 G2J      -0.135400
     15 C15          5.4540    -0.7320    -2.4560 cx         1 G2J      -0.135400
     16 C16          1.1650    -0.1520    -2.4310 c3         1 G2J       0.156300
     17 C17          0.7810     1.2090    -2.9500 ca         1 G2J      -0.118300
     18 C18          1.6390     1.8960    -3.7890 ca         1 G2J      -0.123000
     19 C19          1.2920     3.1460    -4.2690 ca         1 G2J      -0.136000
     20 C20          0.0860     3.7140    -3.9140 ca         1 G2J      -0.123000
     21 C21         -0.7840     3.0260    -3.0700 ca         1 G2J      -0.100500
     22 C22         -2.0820     3.6320    -2.6850 cc         1 G2J       0.374800
     23 C23         -2.5920     4.7990    -3.1520 cd         1 G2J      -0.239600
     24 N24         -3.8030     4.9760    -2.5370 na         1 G2J      -0.205900
     25 C25         -4.9360     5.9110    -2.4790 c3         1 G2J       0.041300
     26 C26         -5.7000     5.5530    -1.1850 c3         1 G2J      -0.101400
     27 C27         -5.3240     4.0680    -0.9970 c3         1 G2J      -0.096700
     28 C28         -3.9960     3.9250    -1.7150 cc         1 G2J       0.384800
     29 N29         -2.9700     3.1180    -1.8110 nd         1 G2J      -0.668000
     30 C30         -0.4320     1.7660    -2.5930 ca         1 G2J      -0.074000
     31 H1           3.3300    -1.5400     0.6750 ha         1 G2J       0.142000
     32 H2           4.5550    -1.5360     2.8090 ha         1 G2J       0.131000
     33 H3           3.8860    -0.0070     4.6190 ha         1 G2J       0.136000
     34 H4           2.6030     0.6460     6.1340 h1         1 G2J       0.041700
     35 H5           2.2740     2.3590     6.4260 h1         1 G2J       0.041700
     36 H6           3.7030     1.8780     5.5010 h1         1 G2J       0.041700
     37 H7           0.7420     1.5440     2.1670 ha         1 G2J       0.166000
     38 H8           3.7360    -0.0870    -0.1830 h1         1 G2J       0.063700
     39 H9           3.6120     1.1510    -1.4400 h1         1 G2J       0.063700
     40 H10          3.3580    -1.1360    -3.0400 hc         1 G2J       0.090700
     41 H11          4.8720    -2.8600    -2.1800 hc         1 G2J       0.075200
     42 H12          5.0910    -1.8850    -0.5900 hc         1 G2J       0.075200
     43 H13          5.9820     0.0170    -1.8790 hc         1 G2J       0.075200
     44 H14          5.7630    -0.9580    -3.4690 hc         1 G2J       0.075200
     45 H15          0.2710    -0.7430    -2.2680 h1         1 G2J       0.065700
     46 H16          1.7990    -0.6500    -3.1550 h1         1 G2J       0.065700
     47 H17          2.5870     1.4540    -4.0700 ha         1 G2J       0.124000
     48 H18          1.9680     3.6800    -4.9260 ha         1 G2J       0.126000
     49 H19         -0.1850     4.6930    -4.2910 ha         1 G2J       0.124000
     50 H20         -2.2200     5.3620    -4.0010 h4         1 G2J       0.172000
     51 H21         -4.5760     6.9320    -2.4290 h1         1 G2J       0.059200
     52 H22         -5.3050     6.1330    -0.3600 hc         1 G2J       0.068200
     53 H23         -5.1800     3.8700     0.0580 hc         1 G2J       0.073700
     54 H25         -1.1040     1.2260    -1.9360 ha         1 G2J       0.175000
     55 H26         -5.5770     5.7750    -3.3410 h1         1 G2J       0.059200
     56 H27         -6.7660     5.6370    -1.3610 hc         1 G2J       0.068200
     57 H28         -6.0630     3.4500    -1.4940 hc         1 G2J       0.073700
@<TRIPOS>BOND
     1     9     8 1
     2     8     7 1
     3     7     6 ar
     4     7    10 ar
     5     6     5 ar
     6    26    27 1
     7    26    25 1
     8    10     3 ar
     9     5     4 ar
    10    27    28 1
    11    25    24 1
    12     4     3 ar
    13     3     2 1
    14    28    24 1
    15    28    29 2
    16    24    23 1
    17     1     2 2
    18    29    22 1
    19     2    11 1
    20    23    22 2
    21    22    21 1
    22    11    12 1
    23    11    16 1
    24    30    21 ar
    25    30    17 ar
    26    21    20 ar
    27    12    13 1
    28    16    17 1
    29    17    18 ar
    30    20    19 ar
    31    13    15 1
    32    13    14 1
    33    18    19 ar
    34    15    14 1
    35     4    31 1
    36     5    32 1
    37     6    33 1
    38     9    34 1
    39     9    35 1
    40     9    36 1
    41    10    37 1
    42    12    38 1
    43    12    39 1
    44    13    40 1
    45    14    41 1
    46    14    42 1
    47    15    43 1
    48    15    44 1
    49    16    45 1
    50    16    46 1
    51    18    47 1
    52    19    48 1
    53    20    49 1
    54    23    50 1
    55    25    51 1
    56    26    52 1
    57    27    53 1
    58    30    54 1
    59    25    55 1
    60    26    56 1
    61    27    57 1
@<TRIPOS>SUBSTRUCTURE
     1 G2J         1 TEMP              0 ****  ****    0 ROOT
