@<TRIPOS>MOLECULE
G2J
   57    61     1     0     0
SMALL
bcc


@<TRIPOS>ATOM
      1 O01          0.0000     0.0000     0.0000 o          1 G2J      -0.632100
      2 C02          1.2150     0.0000     0.0000 c          1 G2J       0.606700
      3 C03          1.9540     0.0000     1.2810 ca         1 G2J      -0.102600
      4 C04          3.0320    -0.8660     1.4690 ca         1 G2J      -0.148000
      5 C05          3.7190    -0.8630     2.6650 ca         1 G2J      -0.063000
      6 C06          3.3420    -0.0050     3.6820 ca         1 G2J      -0.200000
      7 C07          2.2710     0.8600     3.5050 ca         1 G2J       0.145100
      8 O08          1.9060     1.7020     4.5070 os         1 G2J      -0.303900
      9 C09          2.6670     1.6430     5.7150 c3         1 G2J       0.244700
     10 C10          1.5780     0.8700     2.3060 ca         1 G2J      -0.085000
     11 N11          1.8900    -0.0050    -1.1660 n          1 G2J      -0.136800
     12 C12          3.3490     0.1360    -1.1700 c3         1 G2J       0.041000
     13 C13          3.9520    -0.8360    -2.1860 cx         1 G2J      -0.147700
     14 C14          4.9010    -1.9130    -1.6560 cx         1 G2J      -0.076400
     15 C15          5.4540    -0.7320    -2.4560 cx         1 G2J      -0.076400
     16 C16          1.1650    -0.1520    -2.4310 c3         1 G2J       0.101300
     17 C17          0.7810     1.2090    -2.9500 ca         1 G2J      -0.127300
     18 C18          1.6390     1.8960    -3.7890 ca         1 G2J      -0.102000
     19 C19          1.2920     3.1460    -4.2690 ca         1 G2J      -0.109000
     20 C20          0.0860     3.7140    -3.9140 ca         1 G2J      -0.102000
     21 C21         -0.7840     3.0260    -3.0700 ca         1 G2J      -0.097500
     22 C22         -2.0820     3.6320    -2.6850 cc         1 G2J       0.353800
     23 C23         -2.5920     4.7990    -3.1520 cd         1 G2J      -0.397600
     24 N24         -3.8030     4.9760    -2.5370 na         1 G2J       0.255100
     25 C25         -4.9360     5.9110    -2.4790 c3         1 G2J      -0.030700
     26 C26         -5.7000     5.5530    -1.1850 c3         1 G2J      -0.038400
     27 C27         -5.3240     4.0680    -0.9970 c3         1 G2J      -0.024700
     28 C28         -3.9960     3.9250    -1.7150 cd         1 G2J       0.183800
     29 N29         -2.9700     3.1180    -1.8110 nc         1 G2J      -0.571000
     30 C30         -0.4320     1.7660    -2.5930 ca         1 G2J      -0.054000
     31 H1           3.3300    -1.5400     0.6750 ha         1 G2J       0.123000
     32 H2           4.5550    -1.5360     2.8090 ha         1 G2J       0.101000
     33 H3           3.8860    -0.0070     4.6190 ha         1 G2J       0.120000
     34 H4           2.6030     0.6460     6.1340 h1         1 G2J      -0.002300
     35 H5           2.2740     2.3590     6.4260 h1         1 G2J      -0.002300
     36 H6           3.7030     1.8780     5.5010 h1         1 G2J      -0.002300
     37 H7           0.7420     1.5440     2.1670 ha         1 G2J       0.135000
     38 H8           3.7360    -0.0870    -0.1830 h1         1 G2J       0.044200
     39 H9           3.6120     1.1510    -1.4400 h1         1 G2J       0.044200
     40 H10          3.3580    -1.1360    -3.0400 hc         1 G2J       0.074700
     41 H11          4.8720    -2.8600    -2.1800 hc         1 G2J       0.046200
     42 H12          5.0910    -1.8850    -0.5900 hc         1 G2J       0.046200
     43 H13          5.9820     0.0170    -1.8790 hc         1 G2J       0.046200
     44 H14          5.7630    -0.9580    -3.4690 hc         1 G2J       0.046200
     45 H15          0.2710    -0.7430    -2.2680 h1         1 G2J       0.039700
     46 H16          1.7990    -0.6500    -3.1550 h1         1 G2J       0.039700
     47 H17          2.5870     1.4540    -4.0700 ha         1 G2J       0.100000
     48 H18          1.9680     3.6800    -4.9260 ha         1 G2J       0.099000
     49 H19         -0.1850     4.6930    -4.2910 ha         1 G2J       0.102000
     50 H20         -2.2200     5.3620    -4.0010 h4         1 G2J       0.152000
     51 H21         -4.5760     6.9320    -2.4290 h1         1 G2J       0.027700
     52 H22         -5.3050     6.1330    -0.3600 hc         1 G2J       0.034700
     53 H23         -5.1800     3.8700     0.0580 hc         1 G2J       0.035200
     54 H25         -1.1040     1.2260    -1.9360 ha         1 G2J       0.149000
     55 H26         -5.5770     5.7750    -3.3410 h1         1 G2J       0.027700
     56 H27         -6.7660     5.6370    -1.3610 hc         1 G2J       0.034700
     57 H28         -6.0630     3.4500    -1.4940 hc         1 G2J       0.035200
@<TRIPOS>BOND
     1     1     2 2   
     2     2     3 1   
     3     2    11 1   
     4     3     4 ar  
     5     3    10 ar  
     6     4     5 ar  
     7     4    31 1   
     8     5     6 ar  
     9     5    32 1   
    10     6     7 ar  
    11     6    33 1   
    12     7     8 1   
    13     7    10 ar  
    14     8     9 1   
    15     9    34 1   
    16     9    35 1   
    17     9    36 1   
    18    10    37 1   
    19    11    12 1   
    20    11    16 1   
    21    12    13 1   
    22    12    38 1   
    23    12    39 1   
    24    13    14 1   
    25    13    15 1   
    26    13    40 1   
    27    14    15 1   
    28    14    41 1   
    29    14    42 1   
    30    15    43 1   
    31    15    44 1   
    32    16    17 1   
    33    16    45 1   
    34    16    46 1   
    35    17    18 ar  
    36    17    30 ar  
    37    18    19 ar  
    38    18    47 1   
    39    19    20 ar  
    40    19    48 1   
    41    20    21 ar  
    42    20    49 1   
    43    21    22 1   
    44    21    30 ar  
    45    22    23 2   
    46    22    29 1   
    47    23    24 1   
    48    23    50 1   
    49    24    25 1   
    50    24    28 1   
    51    25    26 1   
    52    25    51 1   
    53    25    55 1   
    54    26    27 1   
    55    26    52 1   
    56    26    56 1   
    57    27    28 1   
    58    27    53 1   
    59    27    57 1   
    60    28    29 2   
    61    30    54 1   
@<TRIPOS>SUBSTRUCTURE
     1 G2J         1 TEMP              0 ****  ****    0 ROOT
