@<TRIPOS>MOLECULE
G2K
   60    63     1     0     0
SMALL
bcc


@<TRIPOS>ATOM
      1 C1           0.0000     0.0000     0.0000 c          1 G2K       0.548700
      2 C10         10.3880     0.0040     4.2090 ca         1 G2K      -0.103000
      3 C11          9.6970     1.2010     4.1780 ca         1 G2K      -0.098500
      4 C12          8.3160     1.2000     4.1170 ca         1 G2K      -0.095000
      5 C13          0.0840    -0.0010     2.3430 cc         1 G2K       0.239900
      6 C14         -0.6550     0.0070     3.6570 c3         1 G2K       0.013400
      7 C15         -1.6010     1.2230     3.7220 c3         1 G2K      -0.041400
      8 C16         -1.4820     1.6780     5.2000 c3         1 G2K      -0.025400
      9 C17          0.0090     1.3850     5.4970 c3         1 G2K       0.043000
     10 C19          2.1900    -0.4780     6.2390 c3         1 G2K       0.133400
     11 C2           1.4680     0.0000     0.0000 cc         1 G2K       0.043900
     12 C20          4.0410    -1.4590     7.3650 ca         1 G2K       0.145100
     13 C21          4.0130    -0.3780     8.2340 ca         1 G2K      -0.209000
     14 C22          4.9310    -0.2970     9.2630 ca         1 G2K      -0.055000
     15 C23          5.8760    -1.2910     9.4290 ca         1 G2K      -0.131000
     16 C24          5.9060    -2.3710     8.5650 ca         1 G2K      -0.058000
     17 C25          4.9880    -2.4600     7.5370 ca         1 G2K      -0.075600
     18 C3           2.1130     0.0000     1.2260 cd         1 G2K       0.013400
     19 C4           3.5910     0.0000     1.2930 c          1 G2K       0.596300
     20 C5           5.6750     0.0020     2.5540 c3         1 G2K       0.049000
     21 C6           6.1210     0.0020     4.0190 c3         1 G2K       0.013900
     22 C7           7.6270     0.0020     4.0850 ca         1 G2K      -0.088300
     23 C8           8.3180    -1.1940     4.1160 ca         1 G2K      -0.095000
     24 C9           9.6990    -1.1940     4.1770 ca         1 G2K      -0.098500
     25 N1           4.2120     0.0010     2.4890 ns         1 G2K      -0.179900
     26 N2           1.3830    -0.0000     2.3570 nd         1 G2K      -0.501300
     27 N3           0.3000     0.1370     4.7670 n          1 G2K      -0.149800
     28 N4          -0.6340     0.0060     1.1940 ns         1 G2K       0.036600
     29 O1          -0.6290     0.0000    -1.0450 o          1 G2K      -0.665500
     30 O2           2.1690     0.0000    -1.1610 oh         1 G2K      -0.422100
     31 O3           4.2460     0.0020     0.2680 o          1 G2K      -0.631100
     32 O4           3.1390    -1.5400     6.3510 os         1 G2K      -0.261900
     33 O5           1.4280    -1.7370     4.3950 o          1 G2K      -0.599100
     34 Cl1          5.0250    -3.8150     6.4530 cl         1 G2K       0.004600
     35 H1          11.4700     0.0040     4.2560 ha         1 G2K       0.101000
     36 H2          10.2380     2.1390     4.2030 ha         1 G2K       0.102500
     37 H3           7.7750     2.1370     4.0930 ha         1 G2K       0.106500
     38 H4          -1.2260    -0.9080     3.7700 h1         1 G2K       0.049700
     39 H5          -2.6190     0.9280     3.4940 hc         1 G2K       0.031200
     40 H6          -1.2630     2.0060     3.0530 hc         1 G2K       0.031200
     41 H7          -1.6940     2.7360     5.2960 hc         1 G2K       0.030200
     42 H8          -2.1270     1.0870     5.8390 hc         1 G2K       0.030200
     43 H9           0.1590     1.2410     6.5610 h1         1 G2K       0.021200
     44 H10          0.6320     2.1900     5.1270 h1         1 G2K       0.021200
     45 H11          2.7130     0.4590     6.0890 h1         1 G2K       0.016200
     46 H12          1.6020    -0.4220     7.1470 h1         1 G2K       0.016200
     47 H13          3.2740     0.4040     8.1030 ha         1 G2K       0.116000
     48 H14          4.9100     0.5480     9.9420 ha         1 G2K       0.103000
     49 H15          6.5950    -1.2240    10.2360 ha         1 G2K       0.110000
     50 H16          6.6460    -3.1510     8.6990 ha         1 G2K       0.116000
     51 H17          6.0590     0.8860     2.0600 h1         1 G2K       0.029200
     52 H18          6.0590    -0.8830     2.0600 h1         1 G2K       0.029200
     53 H19          5.7370     0.8860     4.5130 hc         1 G2K       0.022700
     54 H20          5.7370    -0.8830     4.5130 hc         1 G2K       0.022700
     55 H21          7.7770    -2.1330     4.0910 ha         1 G2K       0.106500
     56 H22         10.2400    -2.1320     4.2000 ha         1 G2K       0.102500
     57 H23          3.6730     0.0240     3.3320 hn         1 G2K       0.189500
     58 H24         -1.6350     0.0060     1.2290 hn         1 G2K       0.181500
     59 H25          2.0040    -0.8020    -1.6280 ho         1 G2K       0.412000
     60 C18          1.2800    -0.7390     5.0670 c          1 G2K       0.602100
@<TRIPOS>BOND
     1     1    11 1   
     2     1    28 1   
     3     1    29 2   
     4     2     3 ar  
     5     2    24 ar  
     6     2    35 1   
     7     3     4 ar  
     8     3    36 1   
     9     4    22 ar  
    10     4    37 1   
    11     5     6 1   
    12     5    26 2   
    13     5    28 1   
    14     6     7 1   
    15     6    27 1   
    16     6    38 1   
    17     7     8 1   
    18     7    39 1   
    19     7    40 1   
    20     8     9 1   
    21     8    41 1   
    22     8    42 1   
    23     9    27 1   
    24     9    43 1   
    25     9    44 1   
    26    10    32 1   
    27    10    45 1   
    28    10    46 1   
    29    10    60 1   
    30    11    18 2   
    31    11    30 1   
    32    12    13 ar  
    33    12    17 ar  
    34    12    32 1   
    35    13    14 ar  
    36    13    47 1   
    37    14    15 ar  
    38    14    48 1   
    39    15    16 ar  
    40    15    49 1   
    41    16    17 ar  
    42    16    50 1   
    43    17    34 1   
    44    18    19 1   
    45    18    26 1   
    46    19    25 1   
    47    19    31 2   
    48    20    21 1   
    49    20    25 1   
    50    20    51 1   
    51    20    52 1   
    52    21    22 1   
    53    21    53 1   
    54    21    54 1   
    55    22    23 ar  
    56    23    24 ar  
    57    23    55 1   
    58    24    56 1   
    59    25    57 1   
    60    27    60 1   
    61    28    58 1   
    62    30    59 1   
    63    33    60 2   
@<TRIPOS>SUBSTRUCTURE
     1 G2K         1 TEMP              0 ****  ****    0 ROOT
