@<TRIPOS>MOLECULE
molecule
   60    63     1     0     0
SMALL
bcc


@<TRIPOS>ATOM
      1 C1           0.0000     0.0000     0.0000 c          1 G2K       0.654700
      2 C10         10.3880     0.0040     4.2090 ca         1 G2K      -0.129000
      3 C11          9.6970     1.2010     4.1780 ca         1 G2K      -0.126500
      4 C12          8.3160     1.2000     4.1170 ca         1 G2K      -0.121500
      5 C13          0.0840    -0.0010     2.3430 cc         1 G2K       0.466900
      6 C14         -0.6550     0.0070     3.6570 c3         1 G2K       0.091400
      7 C15         -1.6010     1.2230     3.7220 c3         1 G2K      -0.099400
      8 C16         -1.4820     1.6780     5.2000 c3         1 G2K      -0.091400
      9 C17          0.0090     1.3850     5.4970 c3         1 G2K       0.090000
     10 C19          2.1900    -0.4780     6.2390 c3         1 G2K       0.069400
     11 C2           1.4680     0.0000     0.0000 cd         1 G2K       0.008900
     12 C20          4.0410    -1.4590     7.3650 ca         1 G2K       0.142100
     13 C21          4.0130    -0.3780     8.2340 ca         1 G2K      -0.219000
     14 C22          4.9310    -0.2970     9.2630 ca         1 G2K      -0.088000
     15 C23          5.8760    -1.2910     9.4290 ca         1 G2K      -0.154000
     16 C24          5.9060    -2.3710     8.5650 ca         1 G2K      -0.084000
     17 C25          4.9880    -2.4600     7.5370 ca         1 G2K       0.001400
     18 C3           2.1130     0.0000     1.2260 cc         1 G2K       0.091400
     19 C4           3.5910     0.0000     1.2930 c          1 G2K       0.684300
     20 C5           5.6750     0.0020     2.5540 c3         1 G2K       0.117000
     21 C6           6.1210     0.0020     4.0190 c3         1 G2K      -0.055100
     22 C7           7.6270     0.0020     4.0850 ca         1 G2K      -0.082300
     23 C8           8.3180    -1.1940     4.1160 ca         1 G2K      -0.121500
     24 C9           9.6990    -1.1940     4.1770 ca         1 G2K      -0.126500
     25 N1           4.2120     0.0010     2.4890 ns         1 G2K      -0.568900
     26 N2           1.3830    -0.0000     2.3570 nc         1 G2K      -0.624300
     27 N3           0.3000     0.1370     4.7670 n          1 G2K      -0.486800
     28 N4          -0.6340     0.0060     1.1940 ns         1 G2K      -0.446400
     29 O1          -0.6290     0.0000    -1.0450 o          1 G2K      -0.620500
     30 O2           2.1690     0.0000    -1.1610 oh         1 G2K      -0.447100
     31 O3           4.2460     0.0020     0.2680 o          1 G2K      -0.582100
     32 O4           3.1390    -1.5400     6.3510 os         1 G2K      -0.286900
     33 O5           1.4280    -1.7370     4.3950 o          1 G2K      -0.547100
     34 Cl1          5.0250    -3.8150     6.4530 cl         1 G2K      -0.082400
     35 H1          11.4700     0.0040     4.2560 ha         1 G2K       0.128000
     36 H2          10.2380     2.1390     4.2030 ha         1 G2K       0.129500
     37 H3           7.7750     2.1370     4.0930 ha         1 G2K       0.132500
     38 H4          -1.2260    -0.9080     3.7700 h1         1 G2K       0.085700
     39 H5          -2.6190     0.9280     3.4940 hc         1 G2K       0.065200
     40 H6          -1.2630     2.0060     3.0530 hc         1 G2K       0.065200
     41 H7          -1.6940     2.7360     5.2960 hc         1 G2K       0.064200
     42 H8          -2.1270     1.0870     5.8390 hc         1 G2K       0.064200
     43 H9           0.1590     1.2410     6.5610 h1         1 G2K       0.051200
     44 H10          0.6320     2.1900     5.1270 h1         1 G2K       0.051200
     45 H11          2.7130     0.4590     6.0890 h1         1 G2K       0.053700
     46 H12          1.6020    -0.4220     7.1470 h1         1 G2K       0.053700
     47 H13          3.2740     0.4040     8.1030 ha         1 G2K       0.134000
     48 H14          4.9100     0.5480     9.9420 ha         1 G2K       0.135000
     49 H15          6.5950    -1.2240    10.2360 ha         1 G2K       0.139000
     50 H16          6.6460    -3.1510     8.6990 ha         1 G2K       0.150000
     51 H17          6.0590     0.8860     2.0600 h1         1 G2K       0.057700
     52 H18          6.0590    -0.8830     2.0600 h1         1 G2K       0.057700
     53 H19          5.7370     0.8860     4.5130 hc         1 G2K       0.054200
     54 H20          5.7370    -0.8830     4.5130 hc         1 G2K       0.054200
     55 H21          7.7770    -2.1330     4.0910 ha         1 G2K       0.132500
     56 H22         10.2400    -2.1320     4.2000 ha         1 G2K       0.129500
     57 H23          3.6730     0.0240     3.3320 hn         1 G2K       0.329500
     58 H24         -1.6350     0.0060     1.2290 hn         1 G2K       0.338500
     59 H25          2.0040    -0.8020    -1.6280 ho         1 G2K       0.432000
     60 C18          1.2800    -0.7390     5.0670 c          1 G2K       0.685100
@<TRIPOS>BOND
     1    34    17 1
     2    16    17 ar
     3    16    15 ar
     4    17    12 ar
     5    15    14 ar
     6    12    32 1
     7    12    13 ar
     8    32    10 1
     9    14    13 ar
    10    10    60 1
    11     4     3 ar
    12     4    22 ar
    13    21    22 1
    14    21    20 1
    15     3     2 ar
    16    33    60 2
    17    22    23 ar
    18    60    27 1
    19    20    25 1
    20    25    19 1
    21     2    24 ar
    22    23    24 ar
    23    27     9 1
    24    27     6 1
    25     9     8 1
    26    19    31 2
    27    19    18 1
    28    26    18 1
    29    26     5 2
    30     6     5 1
    31     6     7 1
    32    18    11 2
    33     5    28 1
    34     8     7 1
    35    11    30 1
    36    11     1 1
    37    28     1 1
    38     1    29 2
    39     2    35 1
    40     3    36 1
    41     4    37 1
    42     6    38 1
    43     7    39 1
    44     7    40 1
    45     8    41 1
    46     8    42 1
    47     9    43 1
    48     9    44 1
    49    10    45 1
    50    10    46 1
    51    13    47 1
    52    14    48 1
    53    15    49 1
    54    16    50 1
    55    20    51 1
    56    20    52 1
    57    21    53 1
    58    21    54 1
    59    23    55 1
    60    24    56 1
    61    25    57 1
    62    28    58 1
    63    30    59 1
@<TRIPOS>SUBSTRUCTURE
     1 G2K         1 TEMP              0 ****  ****    0 ROOT
