@<TRIPOS>MOLECULE
G2M
   52    54     1     0     0
SMALL
bcc


@<TRIPOS>ATOM
      1 N1          0.0000    0.0000    0.0000 ns        1 G2M     -0.017400
      2 C2          1.3630    0.0000    0.0000 cc        1 G2M     -0.399200
      3 N2          2.0300   -0.0020   -1.1990 nz        1 G2M      0.363400
      4 N3          2.0570    0.0000    1.1160 nd        1 G2M     -0.724100
      5 C4          1.4490    0.0010    2.3090 cd        1 G2M      0.007800
      6 C5          0.0520    0.0020    2.3750 cc        1 G2M     -0.052200
      7 C6         -0.6830    0.0010    1.1660 c         1 G2M      0.604000
      8 O6         -1.9020    0.0020    1.1760 o         1 G2M     -0.817500
      9 N7         -0.2890    0.0030    3.6860 nc        1 G2M     -0.528000
     10 C8          0.7900    0.0020    4.4120 cd        1 G2M      0.131400
     11 N9          1.8900    0.0020    3.6040 na        1 G2M      0.164100
     12 PA          4.5180   -1.6740    9.5390 p5        1 G2M      0.968800
     13 PB          4.4460   -4.3690   10.7710 p5        1 G2M      0.711600
     14 PG          4.7970   -7.2260   11.5270 p5        1 G2M      0.485700
     15 C1'         3.2880    0.0020    4.0450 c3        1 G2M      0.185800
     16 O1A         5.6540   -0.8930   10.3730 o         1 G2M     -0.667000
     17 O1B         2.8570   -4.4240   11.0300 o         1 G2M     -0.459500
     18 O1G         5.1870   -8.6890   10.9790 o         1 G2M     -0.517167
     19 C2'         3.8260    1.4460    4.0800 c3        1 G2M     -0.117400
     20 O2A         3.1860   -1.3440   10.0930 o         1 G2M     -0.667000
     21 O2B         5.1380   -4.0120   12.0280 o         1 G2M     -0.459500
     22 O2G         5.7440   -6.8510   12.7730 o         1 G2M     -0.517167
     23 C3'         4.2710    1.6480    5.5490 c3        1 G2M      0.146100
     24 O3'         5.5070    2.3640    5.6130 oh        1 G2M     -0.587800
     25 O3A         4.7670   -3.2610    9.6480 os        1 G2M     -0.511800
     26 C3B         5.0270   -5.9990   10.1980 c3        1 G2M      0.375600
     27 C3B2        4.2220   -6.4230    8.9670 c3        1 G2M     -0.027600
     28 C3B3        6.5090   -5.9130    9.8330 c3        1 G2M     -0.027600
     29 O3G         3.3830   -7.2230   11.9630 o         1 G2M     -0.517167
     30 C4'         4.4510    0.1880    6.0370 c3        1 G2M      0.152100
     31 O4'         3.3810   -0.5220    5.3790 os        1 G2M     -0.370600
     32 C5'         4.2980    0.1070    7.5580 c3        1 G2M      0.314400
     33 O5'         4.5830   -1.2250    7.9940 os        1 G2M     -0.504200
     34 HN1        -0.4980    0.0010   -0.8680 hn        1 G2M      0.100500
     35 HN2         1.7900    0.8220   -1.7150 hn        1 G2M      0.052800
     36 HN2A        1.7700   -0.8130   -1.7250 hn        1 G2M      0.052800
     37 H8          0.8130    0.0050    5.4950 h5        1 G2M      0.019100
     38 H1'         3.8910   -0.5970    3.3730 h2        1 G2M      0.019700
     39 H2'         3.0410    2.1470    3.8230 hc        1 G2M      0.027200
     40 H2'A        4.6710    1.5510    3.4110 hc        1 G2M      0.027200
     41 H3'         3.4980    2.1500    6.1180 h1        1 G2M      0.016700
     42 HO3'        5.3340    3.2750    5.7790 ho        1 G2M      0.369000
     43 HC3B        4.3640   -5.6980    8.1760 hc        1 G2M      0.025033
     44 HC3A        4.5620   -7.3960    8.6310 hc        1 G2M      0.025033
     45 HC3C        3.1710   -6.4770    9.2240 hc        1 G2M      0.025033
     46 HC3D        7.0550   -5.4510   10.6460 hc        1 G2M      0.025033
     47 HC3E        6.6260   -5.3180    8.9350 hc        1 G2M      0.025033
     48 HC3F        6.8960   -6.9100    9.6580 hc        1 G2M      0.025033
     49 H4'         5.4120   -0.2000    5.7240 h1        1 G2M      0.020700
     50 H5'         4.9880    0.7970    8.0280 h1        1 G2M     -0.014300
     51 H5'A        3.2830    0.3670    7.8330 h1        1 G2M     -0.014300
     52 H23         3.0170   -0.0150   -1.0320 hn        1 G2M      0.052800
@<TRIPOS>BOND
     1    1    2 1   
     2    1    7 1   
     3    1   34 1   
     4    2    3 1   
     5    2    4 2   
     6    3   35 1   
     7    3   36 1   
     8    3   52 1   
     9    4    5 1   
    10    5    6 2   
    11    5   11 1   
    12    6    7 1   
    13    6    9 1   
    14    7    8 2   
    15    9   10 2   
    16   10   11 1   
    17   10   37 1   
    18   11   15 1   
    19   12   16 1   
    20   12   20 1   
    21   12   25 1   
    22   12   33 1   
    23   13   17 1   
    24   13   21 1   
    25   13   25 1   
    26   13   26 1   
    27   14   18 1   
    28   14   22 1   
    29   14   26 1   
    30   14   29 1   
    31   15   19 1   
    32   15   31 1   
    33   15   38 1   
    34   19   23 1   
    35   19   39 1   
    36   19   40 1   
    37   23   24 1   
    38   23   30 1   
    39   23   41 1   
    40   24   42 1   
    41   26   27 1   
    42   26   28 1   
    43   27   43 1   
    44   27   44 1   
    45   27   45 1   
    46   28   46 1   
    47   28   47 1   
    48   28   48 1   
    49   30   31 1   
    50   30   32 1   
    51   30   49 1   
    52   32   33 1   
    53   32   50 1   
    54   32   51 1   
@<TRIPOS>SUBSTRUCTURE
     1 G2M         1 TEMP              0 ****  ****    0 ROOT
