@<TRIPOS>MOLECULE
molecule
   43    45     1     0     0
SMALL
bcc


@<TRIPOS>ATOM
      1 CAA          0.0000     0.0000     0.0000 c3         1 G2N      -0.098100
      2 CAB          9.0370     1.6290     5.9820 c3         1 G2N      -0.086100
      3 OAD          4.0890     0.0010     0.5810 o          1 G2N      -0.535000
      4 CAE         14.0820    -0.6980     4.8980 ca         1 G2N      -0.115000
      5 CAF         13.3430    -0.3590     6.0180 ca         1 G2N      -0.136500
      6 CAG         13.4550    -0.8870     3.6780 ca         1 G2N      -0.136500
      7 CAH         11.9750    -0.2130     5.9280 ca         1 G2N      -0.099500
      8 CAI         12.0880    -0.7400     3.5710 ca         1 G2N      -0.099500
      9 CAJ          5.7520    -0.2120     4.2630 ca         1 G2N      -0.302300
     10 CAK          1.5300     0.0000     0.0000 c3         1 G2N       0.166400
     11 NAL          9.2990    -0.4210     3.4420 ne         1 G2N      -0.546100
     12 NAM          6.0420    -0.1040     1.9180 nb         1 G2N      -0.716000
     13 NAN          3.8640     0.0010     2.7900 ns         1 G2N      -0.534400
     14 NAO          7.7120    -0.4140     5.6850 nu         1 G2N      -0.708600
     15 OAP          2.0140     0.0000     1.3680 os         1 G2N      -0.448900
     16 CAQ          3.3490     0.0010     1.5450 c          1 G2N       0.736100
     17 CAR          9.8740    -0.2500     4.5950 cf         1 G2N       0.423900
     18 CAS          7.3590    -0.1980     2.0290 ca         1 G2N       0.766200
     19 CAT         11.3340    -0.4090     4.7010 ca         1 G2N      -0.131900
     20 CAU          5.2410    -0.1060     2.9740 ca         1 G2N       0.597200
     21 CAV          7.1210    -0.3130     4.4300 ca         1 G2N       0.134600
     22 CAW          7.9520    -0.3120     3.2930 ca         1 G2N      -0.078900
     23 CAX          9.0820     0.1080     5.8260 c3         1 G2N       0.103200
     24 HAA         -0.3610    -0.0140    -1.0210 hc         1 G2N       0.048033
     25 HAAA        -0.3610     0.8920     0.4980 hc         1 G2N       0.048033
     26 H3          -0.3610    -0.8770     0.5230 hc         1 G2N       0.048033
     27 HAB          9.5390     2.0930     5.1410 hc         1 G2N       0.049033
     28 HABA         9.5360     1.9130     6.9010 hc         1 G2N       0.049033
     29 HABB         8.0060     1.9580     6.0140 hc         1 G2N       0.049033
     30 HNAC         8.4860     0.6750     0.5170 hn         1 G2N       0.441300
     31 HNAA         8.3620    -1.0510     0.4220 hn         1 G2N       0.441300
     32 HAF         13.8400    -0.2110     6.9690 ha         1 G2N       0.132000
     33 HAG         14.0400    -1.1480     2.8040 ha         1 G2N       0.132000
     34 HAH         11.3970     0.0480     6.8060 ha         1 G2N       0.143500
     35 HAI         11.5980    -0.8910     2.6170 ha         1 G2N       0.143500
     36 HAJ          5.0900    -0.2130     5.1210 ha         1 G2N       0.147000
     37 HAK          1.8910     0.8840    -0.5110 h1         1 G2N       0.051700
     38 H16          1.8910    -0.8850    -0.5110 h1         1 G2N       0.051700
     39 HNAN         3.2580     0.0740     3.5820 hn         1 G2N       0.339500
     40 H18          7.6850    -1.3660     5.9910 hn         1 G2N       0.387800
     41 H19          9.5490    -0.3370     6.6970 h1         1 G2N       0.076700
     42 NAC          8.1520    -0.1920     0.8900 nv         1 G2N      -1.065500
     43 HAE         15.1560    -0.8130     4.9750 ha         1 G2N       0.130000
@<TRIPOS>BOND
     1    42    18 1
     2     4     5 ar
     3     5     7 ar
     4     6     4 ar
     5     6     8 ar
     6     8    19 ar
     7     9    20 ar
     8    10     1 1
     9    11    22 1
    10    12    20 ar
    11    13    16 1
    12    14    21 1
    13    15    10 1
    14    16     3 2
    15    16    15 1
    16    17    11 2
    17    18    12 ar
    18    19     7 ar
    19    19    17 1
    20    20    13 1
    21    21     9 ar
    22    22    18 ar
    23    22    21 ar
    24    23     2 1
    25    23    14 1
    26    23    17 1
    27     1    24 1
    28     1    25 1
    29     1    26 1
    30     2    27 1
    31     2    28 1
    32     2    29 1
    33    42    30 1
    34    42    31 1
    35     4    43 1
    36     5    32 1
    37     6    33 1
    38     7    34 1
    39     8    35 1
    40     9    36 1
    41    10    37 1
    42    10    38 1
    43    13    39 1
    44    14    40 1
    45    23    41 1
@<TRIPOS>SUBSTRUCTURE
     1 G2N         1 TEMP              0 ****  ****    0 ROOT
