@<TRIPOS>MOLECULE
G2P
   46    48     1     0     0
SMALL
bcc


@<TRIPOS>ATOM
      1 PG         -1.9190    4.9260    1.9370 p5        1 G2P      1.592800
      2 O1G        -0.9930    4.2640    2.8860 o         1 G2P     -0.906000
      3 O2G        -2.4860    6.2550    2.2780 o         1 G2P     -0.906000
      4 O3G        -3.2160    3.9240    1.7410 oh        1 G2P     -0.818400
      5 O3B        -1.4090    4.8460    0.4030 os        1 G2P     -0.843800
      6 PB         -1.0580    4.9900   -1.2210 p5        1 G2P      1.529600
      7 O1B        -2.3830    4.8510   -1.8690 o         1 G2P     -0.907500
      8 O2B        -0.2340    6.2080   -1.3820 o         1 G2P     -0.907500
      9 C3A        -0.0920    3.5140   -1.5110 c3        1 G2P     -0.591800
     10 PA          0.9480    2.8790   -2.6930 p5        1 G2P      1.421600
     11 O1A         0.7730    3.3170   -4.0990 o         1 G2P     -0.903000
     12 O2A         2.3460    2.6830   -2.2050 o         1 G2P     -0.903000
     13 O5'         0.4290    1.2600   -2.7320 os        1 G2P     -0.588200
     14 C5'         0.9590    0.4850   -3.7470 c3        1 G2P      0.209400
     15 C4'         2.0150   -0.4960   -3.1990 c3        1 G2P      0.076100
     16 O4'         1.8790   -1.7620   -3.8950 os        1 G2P     -0.434400
     17 C3'         3.4710   -0.0150   -3.3710 c3        1 G2P      0.118100
     18 O3'         4.0450    0.3490   -2.1350 oh        1 G2P     -0.661800
     19 C2'         4.2480   -1.2380   -3.9280 c3        1 G2P      0.141800
     20 O2'         5.1620   -1.7800   -2.9950 oh        1 G2P     -0.597800
     21 C1'         3.1550   -2.2000   -4.2960 c2        1 G2P      0.067600
     22 N9          3.2100   -3.3240   -5.0060 na        1 G2P      0.038100
     23 C8          2.1130   -4.1970   -5.2930 cc        1 G2P      0.191400
     24 N7          2.4660   -5.3070   -6.0040 nd        1 G2P     -0.603000
     25 C5          3.8070   -5.2010   -6.2160 cd        1 G2P      0.147800
     26 C6          4.7530   -6.0690   -6.8740 c         1 G2P      0.651000
     27 O6          4.5300   -7.1920   -7.4010 o         1 G2P     -0.764500
     28 N1          6.0680   -5.5900   -6.9440 n         1 G2P     -0.483400
     29 C2          6.4710   -4.3810   -6.2900 cd        1 G2P      0.348800
     30 N2          7.8850   -4.0730   -6.3860 nh        1 G2P     -0.836800
     31 N3          5.6320   -3.5570   -5.6470 nc        1 G2P     -0.498100
     32 C4          4.3290   -3.9460   -5.6100 cc        1 G2P     -0.167200
     33 H3A1       -0.8960    2.7430   -1.3990 hc        1 G2P      0.096200
     34 H3A2        0.5140    3.4890   -0.5700 hc        1 G2P      0.096200
     35 H5'1        1.4080    1.1360   -4.5480 h1        1 G2P      0.022700
     36 H5'2        0.1290   -0.1310   -4.2000 h1        1 G2P      0.022700
     37 H4'         1.8050   -0.7070   -2.1150 h1        1 G2P      0.069700
     38 H3'         3.5260    0.8450   -4.0900 h1        1 G2P      0.067700
     39 HA          3.6040    1.1840   -1.8650 ho        1 G2P      0.495000
     40 H2'         4.8800   -0.9690   -4.8170 h1        1 G2P      0.071700
     41 HB          4.7260   -1.7600   -2.1330 ho        1 G2P      0.406000
     42 H1'        -3.4840    3.8440    0.8350 ho        1 G2P      0.423000
     43 H8          1.1140   -3.9390   -4.9460 h5        1 G2P      0.054100
     44 H1          6.7710   -6.1940   -7.2920 hn        1 G2P      0.289500
     45 H2N1        7.9890   -3.2280   -6.9210 hn        1 G2P      0.336300
     46 H2N2        8.2330   -3.8890   -5.4620 hn        1 G2P      0.336300
@<TRIPOS>BOND
     1    1    2 1
     2    1    3 1
     3    1    4 1
     4    1    5 1
     5    4   42 1
     6    5    6 1
     7    6    7 1
     8    6    8 1
     9    6    9 1
    10    9   10 1
    11    9   33 1
    12    9   34 1
    13   10   11 1
    14   10   12 1
    15   10   13 1
    16   13   14 1
    17   14   15 1
    18   14   35 1
    19   14   36 1
    20   15   16 1
    21   15   17 1
    22   15   37 1
    23   16   21 1
    24   17   18 1
    25   17   19 1
    26   17   38 1
    27   18   39 1
    28   19   20 1
    29   19   21 1
    30   19   40 1
    31   20   41 1
    32   21   22 2
    33   22   23 1
    34   22   32 1
    35   23   24 2
    36   23   43 1
    37   24   25 1
    38   25   26 1
    39   25   32 2
    40   26   27 2
    41   26   28 1
    42   28   29 1
    43   28   44 1
    44   29   30 1
    45   29   31 2
    46   30   45 1
    47   30   46 1
    48   31   32 1
@<TRIPOS>SUBSTRUCTURE
     1 G2P         1 TEMP              0 ****  ****    0 ROOT
