@<TRIPOS>MOLECULE
G2V
   35    38     1     0     0
SMALL
bcc


@<TRIPOS>ATOM
      1 C01          0.0000     0.0000     0.0000 c3         1 G2V       0.012900
      2 C02          1.5460     0.0000     0.0000 c3         1 G2V       0.144800
      3 N03          1.8700     0.0000     1.4430 nh         1 G2V      -0.384000
      4 C04         -0.3360    -0.6390     1.3330 ca         1 G2V      -0.144300
      5 C05          0.8080    -0.6090     2.1240 ca         1 G2V       0.004600
      6 C06          0.7630    -1.1480     3.4100 ca         1 G2V      -0.088000
      7 C07         -0.4020    -1.7000     3.8920 ca         1 G2V      -0.096000
      8 C08         -1.5480    -1.7230     3.0980 ca         1 G2V      -0.106500
      9 C09         -2.8050    -2.3150     3.6190 cc         1 G2V       0.358800
     10 C10         -3.0090    -2.7810     4.8770 cd         1 G2V      -0.394600
     11 N11         -4.3020    -3.2370     4.9240 na         1 G2V       0.254100
     12 C12         -5.2660    -3.8660     5.8380 c3         1 G2V      -0.030700
     13 C13         -6.6510    -3.6540     5.1880 c3         1 G2V      -0.037400
     14 C14         -6.2810    -3.5240     3.6930 c3         1 G2V      -0.024700
     15 C15         -4.8450    -3.0360     3.7050 cd         1 G2V       0.184800
     16 N16         -3.9500    -2.4810     2.9290 nc         1 G2V      -0.585000
     17 C17         -1.5050    -1.1870     1.8120 ca         1 G2V      -0.045000
     18 C18          2.0930     1.3670     1.9320 c3         1 G2V       0.181100
     19 H1          -0.3820    -0.5990    -0.8180 hc         1 G2V       0.025200
     20 H2          -0.3820     1.0130    -0.0460 hc         1 G2V       0.025200
     21 H3           1.9170     0.9060    -0.4640 h1         1 G2V       0.028700
     22 H4           1.9170    -0.9060    -0.4640 h1         1 G2V       0.028700
     23 H5           1.6500    -1.1320     4.0320 ha         1 G2V       0.106000
     24 H6          -0.4290    -2.1180     4.8910 ha         1 G2V       0.103000
     25 H7          -2.2430    -2.9630     5.6210 h4         1 G2V       0.153000
     26 H8          -5.2300    -3.3840     6.8070 h1         1 G2V       0.028700
     27 H9          -7.0750    -2.7210     5.5380 hc         1 G2V       0.035200
     28 H10         -6.3180    -4.5040     3.2330 hc         1 G2V       0.034200
     29 H12         -2.3920    -1.2010     1.1890 ha         1 G2V       0.123000
     30 H13          2.4550     1.3310     2.9530 h1         1 G2V       0.003033
     31 H14          1.1620     1.9190     1.8980 h1         1 G2V       0.003033
     32 H15          2.8280     1.8590     1.3060 h1         1 G2V       0.003033
     33 H16         -5.0560    -4.9250     5.9310 h1         1 G2V       0.028700
     34 H17         -7.2580    -4.5390     5.3340 hc         1 G2V       0.035200
     35 H18         -6.9080    -2.7670     3.2380 hc         1 G2V       0.034200
@<TRIPOS>BOND
     1     1     2 1   
     2     1     4 1   
     3     1    19 1   
     4     1    20 1   
     5     2     3 1   
     6     2    21 1   
     7     2    22 1   
     8     3     5 1   
     9     3    18 1   
    10     4     5 ar  
    11     4    17 ar  
    12     5     6 ar  
    13     6     7 ar  
    14     6    23 1   
    15     7     8 ar  
    16     7    24 1   
    17     8     9 1   
    18     8    17 ar  
    19     9    10 2   
    20     9    16 1   
    21    10    11 1   
    22    10    25 1   
    23    11    12 1   
    24    11    15 1   
    25    12    13 1   
    26    12    26 1   
    27    12    33 1   
    28    13    14 1   
    29    13    27 1   
    30    13    34 1   
    31    14    15 1   
    32    14    28 1   
    33    14    35 1   
    34    15    16 2   
    35    17    29 1   
    36    18    30 1   
    37    18    31 1   
    38    18    32 1   
@<TRIPOS>SUBSTRUCTURE
     1 G2V         1 TEMP              0 ****  ****    0 ROOT
