@<TRIPOS>MOLECULE
molecule
   35    38     1     0     0
SMALL
bcc


@<TRIPOS>ATOM
      1 C01          0.0000     0.0000     0.0000 c3         1 G2V      -0.066100
      2 C02          1.5460     0.0000     0.0000 c3         1 G2V       0.160800
      3 N03          1.8700     0.0000     1.4430 nh         1 G2V      -0.601000
      4 C04         -0.3360    -0.6390     1.3330 ca         1 G2V      -0.138300
      5 C05          0.8080    -0.6090     2.1240 ca         1 G2V       0.083600
      6 C06          0.7630    -1.1480     3.4100 ca         1 G2V      -0.121000
      7 C07         -0.4020    -1.7000     3.8920 ca         1 G2V      -0.115000
      8 C08         -1.5480    -1.7230     3.0980 ca         1 G2V      -0.109500
      9 C09         -2.8050    -2.3150     3.6190 cc         1 G2V       0.378800
     10 C10         -3.0090    -2.7810     4.8770 cd         1 G2V      -0.236600
     11 N11         -4.3020    -3.2370     4.9240 na         1 G2V      -0.206900
     12 C12         -5.2660    -3.8660     5.8380 c3         1 G2V       0.041300
     13 C13         -6.6510    -3.6540     5.1880 c3         1 G2V      -0.101400
     14 C14         -6.2810    -3.5240     3.6930 c3         1 G2V      -0.096700
     15 C15         -4.8450    -3.0360     3.7050 cc         1 G2V       0.384800
     16 N16         -3.9500    -2.4810     2.9290 nd         1 G2V      -0.680000
     17 C17         -1.5050    -1.1870     1.8120 ca         1 G2V      -0.072000
     18 C18          2.0930     1.3670     1.9320 c3         1 G2V       0.157100
     19 H1          -0.3820    -0.5990    -0.8180 hc         1 G2V       0.058200
     20 H2          -0.3820     1.0130    -0.0460 hc         1 G2V       0.058200
     21 H3           1.9170     0.9060    -0.4640 h1         1 G2V       0.061700
     22 H4           1.9170    -0.9060    -0.4640 h1         1 G2V       0.061700
     23 H5           1.6500    -1.1320     4.0320 ha         1 G2V       0.135000
     24 H6          -0.4290    -2.1180     4.8910 ha         1 G2V       0.128000
     25 H7          -2.2430    -2.9630     5.6210 h4         1 G2V       0.174000
     26 H8          -5.2300    -3.3840     6.8070 h1         1 G2V       0.059700
     27 H9          -7.0750    -2.7210     5.5380 hc         1 G2V       0.068700
     28 H10         -6.3180    -4.5040     3.2330 hc         1 G2V       0.073200
     29 H12         -2.3920    -1.2010     1.1890 ha         1 G2V       0.152000
     30 H13          2.4550     1.3310     2.9530 h1         1 G2V       0.036033
     31 H14          1.1620     1.9190     1.8980 h1         1 G2V       0.036033
     32 H15          2.8280     1.8590     1.3060 h1         1 G2V       0.036033
     33 H16         -5.0560    -4.9250     5.9310 h1         1 G2V       0.059700
     34 H17         -7.2580    -4.5390     5.3340 hc         1 G2V       0.068700
     35 H18         -6.9080    -2.7670     3.2380 hc         1 G2V       0.073200
@<TRIPOS>BOND
     1    13    12 1
     2    13    14 1
     3    12    11 1
     4    14    15 1
     5    11    15 1
     6    11    10 1
     7    15    16 2
     8    10     9 2
     9    16     9 1
    10     9     8 1
    11     7     8 ar
    12     7     6 ar
    13     8    17 ar
    14     6     5 ar
    15    17     4 ar
    16     5     4 ar
    17     5     3 1
    18     4     1 1
    19    18     3 1
    20     3     2 1
    21     1     2 1
    22     1    19 1
    23     1    20 1
    24     2    21 1
    25     2    22 1
    26     6    23 1
    27     7    24 1
    28    10    25 1
    29    12    26 1
    30    13    27 1
    31    14    28 1
    32    17    29 1
    33    18    30 1
    34    18    31 1
    35    18    32 1
    36    12    33 1
    37    13    34 1
    38    14    35 1
@<TRIPOS>SUBSTRUCTURE
     1 G2V         1 TEMP              0 ****  ****    0 ROOT
