@<TRIPOS>MOLECULE
molecule
   42    43     1     0     0
SMALL
bcc


@<TRIPOS>ATOM
      1 C01          0.0000     0.0000     0.0000 c3         1 G2Y      -0.000300
      2 C02          1.5320     0.0000     0.0000 c3         1 G2Y       0.124100
      3 C03          2.0310     0.0000     1.4480 c3         1 G2Y       0.121100
      4 C04          1.4500     1.2120     2.1800 c3         1 G2Y       0.333900
      5 C06         -0.5020     1.2130     0.7880 c3         1 G2Y       0.159100
      6 C10         -2.0310     1.1870     0.8430 c3         1 G2Y       0.147400
      7 C13          2.1110     2.4810     4.1030 c3         1 G2Y       0.320600
      8 C14          4.1410     3.0030     5.3460 c3         1 G2Y       0.085100
      9 C15          2.7500     2.3400     5.4980 c3         1 G2Y       0.118100
     10 C17          4.3590     2.9530     3.8130 c3         1 G2Y       0.133100
     11 C18          0.7990     3.2610     4.2090 c3         1 G2Y       0.037000
     12 C21          5.3340     4.0470     3.3730 c3         1 G2Y       0.060000
     13 O05          0.0240     1.1670     2.1160 os         1 G2Y      -0.409600
     14 O08          2.0100    -1.1680    -0.6710 oh         1 G2Y      -0.588800
     15 O09          3.4590     0.0720     1.4610 oh         1 G2Y      -0.592800
     16 O11         -2.5020     2.3500     1.5270 oh         1 G2Y      -0.593800
     17 O12          1.8670     1.1880     3.5470 os         1 G2Y      -0.372600
     18 O16          3.0410     3.2010     3.2770 os         1 G2Y      -0.394600
     19 O19          2.8880     0.9620     5.8480 oh         1 G2Y      -0.567800
     20 O20          4.1160     4.3520     5.8150 oh         1 G2Y      -0.592800
     21 Cl1         -0.6030    -1.5130     0.7730 cl         1 G2Y      -0.169400
     22 Cl2          5.6800     3.8700     1.6110 cl         1 G2Y      -0.193400
     23 Cl3          0.2190     3.6900     2.5560 cl         1 G2Y      -0.162400
     24 H011        -0.3600     0.0590    -1.0200 h1         1 G2Y       0.077700
     25 H021         1.8930     0.8870    -0.5060 h1         1 G2Y       0.057700
     26 H031         1.7060    -0.9080     1.9410 h1         1 G2Y       0.079700
     27 H041         1.8030     2.1210     1.7060 h2         1 G2Y       0.075700
     28 H061        -0.1690     2.1210     0.3000 h1         1 G2Y       0.059700
     29 H102        -2.3580     0.3000     1.3710 h1         1 G2Y       0.038700
     30 H101        -2.4290     1.1750    -0.1640 h1         1 G2Y       0.038700
     31 H141         4.8990     2.4230     5.8590 h1         1 G2Y       0.064700
     32 H151         2.1600     2.8670     6.2380 h1         1 G2Y       0.061700
     33 H171         4.7120     1.9750     3.5110 h1         1 G2Y       0.092700
     34 H182         0.9630     4.1670     4.7810 h1         1 G2Y       0.081700
     35 H181         0.0550     2.6500     4.7060 h1         1 G2Y       0.081700
     36 H211         6.2570     3.9540     3.9330 h1         1 G2Y       0.078700
     37 H212         4.8950     5.0190     3.5590 h1         1 G2Y       0.078700
     38 H081         2.2920    -0.9380    -1.5400 ho         1 G2Y       0.407000
     39 H091         3.8160    -0.7920     1.5780 ho         1 G2Y       0.414000
     40 H111        -3.4400     2.4060     1.4440 ho         1 G2Y       0.401000
     41 H191         2.6190     0.8360     6.7430 ho         1 G2Y       0.404000
     42 H201         4.5570     4.4040     6.6470 ho         1 G2Y       0.407000
@<TRIPOS>BOND
     1    14     2 1
     2    21     1 1
     3     1     2 1
     4     1     5 1
     5     2     3 1
     6     6     5 1
     7     6    16 1
     8     5    13 1
     9     3    15 1
    10     3     4 1
    11    13     4 1
    12     4    17 1
    13    19     9 1
    14    17     7 1
    15     9     8 1
    16     9     7 1
    17     8    10 1
    18     8    20 1
    19    11     7 1
    20    11    23 1
    21     7    18 1
    22    10    18 1
    23    10    12 1
    24    12    22 1
    25     1    24 1
    26     2    25 1
    27     3    26 1
    28     4    27 1
    29     5    28 1
    30     6    29 1
    31     6    30 1
    32     8    31 1
    33     9    32 1
    34    10    33 1
    35    11    34 1
    36    11    35 1
    37    12    36 1
    38    12    37 1
    39    14    38 1
    40    15    39 1
    41    16    40 1
    42    19    41 1
    43    20    42 1
@<TRIPOS>SUBSTRUCTURE
     1 G2Y         1 TEMP              0 ****  ****    0 ROOT
