@<TRIPOS>MOLECULE
molecule
   25    26     1     0     0
SMALL
bcc


@<TRIPOS>ATOM
      1 F11          0.0000     0.0000     0.0000 f          1 G30      -0.149900
      2 C11          1.3510     0.0000     0.0000 ca         1 G30       0.128900
      3 C12          2.0430     0.0000     1.1990 ca         1 G30      -0.186000
      4 C13          3.4260    -0.0000     1.2020 ca         1 G30      -0.134000
      5 C14          4.1210     0.0000     0.0060 ca         1 G30       0.074900
      6 F14          5.4720    -0.0000     0.0100 f          1 G30      -0.145900
      7 C10          2.0410    -0.0050    -1.2000 ca         1 G30      -0.149000
      8 C9           3.4280     0.0000    -1.2000 ca         1 G30       0.094600
      9 N5           4.1300     0.0010    -2.4120 ns         1 G30      -0.476100
     10 C4           3.6340    -0.6570    -3.4780 c          1 G30       0.729100
     11 O15          2.5490    -1.1950    -3.4080 o          1 G30      -0.568100
     12 C3           4.4280    -0.7260    -4.7580 cx         1 G30      -0.250700
     13 C1           4.9360    -2.1000    -5.2010 cx         1 G30      -0.154700
     14 C2           3.7830    -1.4320    -5.9520 cx         1 G30      -0.109400
     15 C6           4.6040    -3.2800    -4.3240 c          1 G30       0.907600
     16 O8           4.9250    -4.5220    -4.7210 o          1 G30      -0.825800
     17 O7           4.0490    -3.1090    -3.2640 o          1 G30      -0.825800
     18 H12          1.5000    -0.0000     2.1360 ha         1 G30       0.134000
     19 H13          3.9640    -0.0000     2.1410 ha         1 G30       0.137000
     20 H10          1.4980    -0.0050    -2.1370 ha         1 G30       0.188000
     21 HN5          4.9770     0.5270    -2.4990 hn         1 G30       0.320500
     22 H3           5.0760     0.1020    -5.0160 hc         1 G30       0.053700
     23 H1           5.8860    -2.0860    -5.7220 hc         1 G30       0.062700
     24 H2           4.0320    -1.0260    -6.9250 hc         1 G30       0.072700
     25 H2A          2.8010    -1.8530    -5.7720 hc         1 G30       0.072700
@<TRIPOS>BOND
     1     2     1 1
     2     3     2 ar
     3     2     7 ar
     4     4     3 ar
     5     3    18 1
     6     4     5 ar
     7     4    19 1
     8     6     5 1
     9     5     8 ar
    10     8     7 ar
    11     7    20 1
    12     8     9 1
    13     9    10 1
    14     9    21 1
    15    12    10 1
    16    10    11 2
    17    13    12 1
    18    12    14 1
    19    12    22 1
    20    15    13 1
    21    13    14 1
    22    13    23 1
    23    14    24 1
    24    14    25 1
    25    17    15 1
    26    16    15 1
@<TRIPOS>SUBSTRUCTURE
     1 G30         1 TEMP              0 ****  ****    0 ROOT
