@<TRIPOS>MOLECULE
G30
   25    26     1     0     0
SMALL
bcc


@<TRIPOS>ATOM
      1 F11          0.0000     0.0000     0.0000 f          1 G30      -0.136900
      2 C11          1.3510     0.0000     0.0000 ca         1 G30       0.106900
      3 C12          2.0430     0.0000     1.1990 ca         1 G30      -0.156000
      4 C13          3.4260    -0.0000     1.2020 ca         1 G30      -0.096000
      5 C14          4.1210     0.0000     0.0060 ca         1 G30       0.045900
      6 F14          5.4720    -0.0000     0.0100 f          1 G30      -0.130900
      7 C10          2.0410    -0.0050    -1.2000 ca         1 G30      -0.127000
      8 C9           3.4280     0.0000    -1.2000 ca         1 G30      -0.034400
      9 N5           4.1300     0.0010    -2.4120 ns         1 G30      -0.043100
     10 C4           3.6340    -0.6570    -3.4780 c          1 G30       0.643100
     11 O15          2.5490    -1.1950    -3.4080 o          1 G30      -0.597100
     12 C3           4.4280    -0.7260    -4.7580 cx         1 G30      -0.236700
     13 C1           4.9360    -2.1000    -5.2010 cx         1 G30      -0.127700
     14 C2           3.7830    -1.4320    -5.9520 cx         1 G30      -0.057400
     15 C6           4.6040    -3.2800    -4.3240 c          1 G30       0.997600
     16 O8           4.9250    -4.5220    -4.7210 o          1 G30      -0.878800
     17 O7           4.0490    -3.1090    -3.2640 o          1 G30      -0.878800
     18 H12          1.5000    -0.0000     2.1360 ha         1 G30       0.110000
     19 H13          3.9640    -0.0000     2.1410 ha         1 G30       0.109000
     20 H10          1.4980    -0.0050    -2.1370 ha         1 G30       0.166000
     21 HN5          4.9770     0.5270    -2.4990 hn         1 G30       0.164500
     22 H3           5.0760     0.1020    -5.0160 hc         1 G30       0.034700
     23 H1           5.8860    -2.0860    -5.7220 hc         1 G30       0.035700
     24 H2           4.0320    -1.0260    -6.9250 hc         1 G30       0.044200
     25 H2A          2.8010    -1.8530    -5.7720 hc         1 G30       0.044200
@<TRIPOS>BOND
     1     1     2 1   
     2     2     3 ar  
     3     2     7 ar  
     4     3     4 ar  
     5     3    18 1   
     6     4     5 ar  
     7     4    19 1   
     8     5     6 1   
     9     5     8 ar  
    10     7     8 ar  
    11     7    20 1   
    12     8     9 1   
    13     9    10 1   
    14     9    21 1   
    15    10    11 2   
    16    10    12 1   
    17    12    13 1   
    18    12    14 1   
    19    12    22 1   
    20    13    14 1   
    21    13    15 1   
    22    13    23 1   
    23    14    24 1   
    24    14    25 1   
    25    15    16 1   
    26    15    17 1   
@<TRIPOS>SUBSTRUCTURE
     1 G30         1 TEMP              0 ****  ****    0 ROOT
