@<TRIPOS>MOLECULE
G39
   44    44     1     0     0
SMALL
bcc


@<TRIPOS>ATOM
      1 C1           0.0000     0.0000     0.0000 c          1 G39       0.963800
      2 O1A          1.3480     0.0000     0.0000 o          1 G39      -0.856300
      3 O1B         -0.6070     0.0000     1.0520 o          1 G39      -0.856300
      4 C2          -0.7340    -0.0080    -1.2730 ce         1 G39      -0.154400
      5 C3           0.0580    -0.0080    -2.5470 c3         1 G39       0.047800
      6 C4          -0.8280    -0.4400    -3.7180 c3         1 G39      -0.104500
      7 C5          -2.1210     0.3830    -3.6810 c3         1 G39       0.009700
      8 N5          -2.9050     0.1240    -4.8910 ns         1 G39      -0.264900
      9 C10         -3.7800     1.0470    -5.3370 c          1 G39       0.573100
     10 O10         -3.9190     2.0910    -4.7370 o          1 G39      -0.573100
     11 C11         -4.5870     0.7800    -6.5820 c3         1 G39      -0.063100
     12 C6          -2.9260    -0.0320    -2.4480 c3         1 G39       0.201300
     13 C7          -2.0500    -0.0190    -1.2280 c2         1 G39      -0.204200
     14 O7          -4.0130     0.8780    -2.2630 os         1 G39      -0.368600
     15 C8          -5.1630     0.2930    -1.6490 c3         1 G39       0.170100
     16 C9          -5.9080     1.3590    -0.8420 c3         1 G39      -0.045900
     17 C81         -6.0890    -0.2690    -2.7300 c3         1 G39      -0.045900
     18 C82         -5.3870    -1.4190    -3.4540 c3         1 G39      -0.011100
     19 C91         -5.0260     1.8310     0.3160 c3         1 G39      -0.011100
     20 N4          -0.1250    -0.1980    -4.9850 nz         1 G39       0.066400
     21 H31          0.4350     0.9910    -2.7330 hc         1 G39       0.048200
     22 H32          0.8870    -0.6980    -2.4520 hc         1 G39       0.048200
     23 H4          -1.0660    -1.4920    -3.6230 hx         1 G39       0.091700
     24 H5          -1.8780     1.4370    -3.6170 h1         1 G39       0.090700
     25 HN5         -2.7510    -0.7140    -5.4160 hn         1 G39       0.161500
     26 H111        -4.0480     1.1490    -7.4470 hc         1 G39       0.026367
     27 H112        -4.7490    -0.2860    -6.6850 hc         1 G39       0.026367
     28 H113        -5.5420     1.2860    -6.5090 hc         1 G39       0.026367
     29 H6          -3.3130    -1.0320    -2.5970 h1         1 G39       0.028700
     30 H7          -2.5290    -0.0200    -0.2560 ha         1 G39       0.165000
     31 H8          -4.8520    -0.5070    -0.9890 h1         1 G39       0.022700
     32 H91         -6.8250     0.9380    -0.4490 hc         1 G39       0.022950
     33 H92         -6.1420     2.1990    -1.4840 hc         1 G39       0.022950
     34 H811        -6.3300     0.5130    -3.4410 hc         1 G39       0.022950
     35 H812        -7.0000    -0.6330    -2.2710 hc         1 G39       0.022950
     36 H821        -4.6110    -1.0210    -4.0970 hc         1 G39       0.006867
     37 H822        -6.1080    -1.9620    -4.0530 hc         1 G39       0.006867
     38 H823        -4.9450    -2.0880    -2.7260 hc         1 G39       0.006867
     39 H911        -4.1820     2.3870    -0.0760 hc         1 G39       0.006867
     40 H912        -5.6040     2.4690     0.9730 hc         1 G39       0.006867
     41 H913        -4.6670     0.9730     0.8700 hc         1 G39       0.006867
     42 HN41        -0.1500     0.7790    -5.1990 hn         1 G39       0.219133
     43 HN42        -0.5720    -0.7120    -5.7180 hn         1 G39       0.219133
     44 H43          0.8270    -0.4970    -4.9000 hn         1 G39       0.219133
@<TRIPOS>BOND
     1     1     2 1   
     2     1     3 1   
     3     1     4 1   
     4     4     5 1   
     5     4    13 2   
     6     5     6 1   
     7     5    21 1   
     8     5    22 1   
     9     6     7 1   
    10     6    20 1   
    11     6    23 1   
    12     7     8 1   
    13     7    12 1   
    14     7    24 1   
    15     8     9 1   
    16     8    25 1   
    17     9    10 2   
    18     9    11 1   
    19    11    26 1   
    20    11    27 1   
    21    11    28 1   
    22    12    13 1   
    23    12    14 1   
    24    12    29 1   
    25    13    30 1   
    26    14    15 1   
    27    15    16 1   
    28    15    17 1   
    29    15    31 1   
    30    16    19 1   
    31    16    32 1   
    32    16    33 1   
    33    17    18 1   
    34    17    34 1   
    35    17    35 1   
    36    18    36 1   
    37    18    37 1   
    38    18    38 1   
    39    19    39 1   
    40    19    40 1   
    41    19    41 1   
    42    20    42 1   
    43    20    43 1   
    44    20    44 1   
@<TRIPOS>SUBSTRUCTURE
     1 G39         1 TEMP              0 ****  ****    0 ROOT
