@<TRIPOS>MOLECULE
G3B
   38    41     1     0     0
SMALL
bcc


@<TRIPOS>ATOM
      1 O21        -0.1540   -0.1090    0.6310 o         1 G3B     -0.509200
      2 S24         1.1130    0.0200   -0.1420 sx        1 G3B      0.325400
      3 C18         2.3170    0.5040    1.0180 c3        1 G3B     -0.128800
      4 C14         1.6290   -1.5750   -0.5000 ca        1 G3B     -0.130500
      5 C5          0.8610   -2.6870   -0.1440 ca        1 G3B     -0.054500
      6 C6          2.8000   -1.7720   -1.2370 ca        1 G3B     -0.054500
      7 C3          3.1960   -3.0490   -1.6190 ca        1 G3B     -0.138000
      8 C10         2.4210   -4.1660   -1.2620 ca        1 G3B      0.012200
      9 C2          1.2470   -3.9710   -0.5210 ca        1 G3B     -0.138000
     10 C12         2.8330   -5.4880   -1.6700 cc        1 G3B     -0.072400
     11 C9          2.6730   -6.7310   -0.9230 ca        1 G3B     -0.102800
     12 C13         3.2330   -7.7530   -1.7530 ca        1 G3B      0.077100
     13 O22         3.7140   -7.2010   -2.9400 os        1 G3B     -0.192200
     14 C8          3.4580   -5.8250   -2.8540 cd        1 G3B      0.005100
     15 C4          3.2760   -9.0950   -1.3880 ca        1 G3B     -0.126000
     16 C7          2.1540   -7.0790    0.3200 ca        1 G3B     -0.034000
     17 C11         2.1920   -8.4290    0.6980 ca        1 G3B     -0.153500
     18 C1          2.7430   -9.4180   -0.1450 ca        1 G3B     -0.079000
     19 C15         1.6520   -8.8120    1.9850 cc        1 G3B      0.513900
     20 O23         1.7130  -10.1660    2.3690 os        1 G3B     -0.396800
     21 C16         1.1130  -10.1780    3.6400 cc        1 G3B      0.457700
     22 C17         1.0140  -11.4690    4.3350 c3        1 G3B     -0.124400
     23 N20         0.7370   -8.9240    3.9610 nd        1 G3B     -0.345000
     24 N19         1.0580   -8.1060    2.9730 nd        1 G3B     -0.346000
     25 H18         2.2480    1.6100    1.1510 h1        1 G3B      0.084700
     26 H18A        2.1810    0.0430    2.0230 h1        1 G3B      0.084700
     27 H18B        3.3420    0.2570    0.6630 h1        1 G3B      0.084700
     28 H5         -0.0640   -2.5350    0.4420 ha        1 G3B      0.149000
     29 H6          3.4220   -0.9070   -1.5200 ha        1 G3B      0.149000
     30 H3          4.1220   -3.1910   -2.1950 ha        1 G3B      0.140000
     31 H2          0.6250   -4.8360   -0.2420 ha        1 G3B      0.140000
     32 H8          3.7830   -5.2650   -3.7280 h4        1 G3B      0.197000
     33 H4          3.7110   -9.8550   -2.0500 ha        1 G3B      0.159000
     34 H7          1.7310   -6.3140    0.9900 ha        1 G3B      0.170000
     35 H1          2.7500  -10.4670    0.1940 ha        1 G3B      0.154000
     36 H17         1.5020  -12.2720    3.7290 hc        1 G3B      0.074033
     37 H17A       -0.0640  -11.7290    4.4920 hc        1 G3B      0.074033
     38 H17B        1.5180  -11.4010    5.3320 hc        1 G3B      0.074033
@<TRIPOS>BOND
     1    1    2 2
     2    2    3 1
     3    2    4 1
     4    3   25 1
     5    3   26 1
     6    3   27 1
     7    4    5 ar
     8    4    6 ar
     9    5    9 ar
    10    5   28 1
    11    6    7 ar
    12    6   29 1
    13    7    8 ar
    14    7   30 1
    15    8    9 ar
    16    8   10 1
    17    9   31 1
    18   10   11 1
    19   10   14 2
    20   11   12 ar
    21   11   16 ar
    22   12   13 1
    23   12   15 ar
    24   13   14 1
    25   14   32 1
    26   15   18 ar
    27   15   33 1
    28   16   17 ar
    29   16   34 1
    30   17   18 ar
    31   17   19 1
    32   18   35 1
    33   19   20 1
    34   19   24 2
    35   20   21 1
    36   21   22 1
    37   21   23 2
    38   22   36 1
    39   22   37 1
    40   22   38 1
    41   23   24 1
@<TRIPOS>SUBSTRUCTURE
     1 G3B         1 TEMP              0 ****  ****    0 ROOT
