@<TRIPOS>MOLECULE
molecule
   44    46     1     0     0
SMALL
bcc


@<TRIPOS>ATOM
      1 PB           0.0000     0.0000     0.0000 p5         1 G3D       1.170900
      2 O1B          1.6100     0.0000     0.0000 o          1 G3D      -0.662833
      3 O2B         -0.5360     0.0000     1.5190 o          1 G3D      -0.662833
      4 O3B         -0.4930    -1.2070    -0.6970 o          1 G3D      -0.662833
      5 PA          -2.1450     1.2500    -0.7200 p5         1 G3D       1.296800
      6 O3A         -0.5370     1.3150    -0.7580 os         1 G3D      -0.628800
      7 O1A         -2.6450     1.2280     0.8100 o          1 G3D      -0.665000
      8 O2A         -2.6060     0.0230    -1.4060 o          1 G3D      -0.665000
      9 O5'         -2.7530     2.5410    -1.4660 os         1 G3D      -0.553200
     10 C5'         -4.1750     2.4250    -1.3990 c3         1 G3D       0.145400
     11 C4'         -4.8170     3.6290    -2.0930 c3         1 G3D       0.122100
     12 O4'         -4.4420     3.6640    -3.4850 os         1 G3D      -0.412600
     13 C3'         -6.3540     3.4890    -2.1010 c3         1 G3D       0.134100
     14 O3'         -6.9340     4.2480    -1.0380 os         1 G3D      -0.513200
     15 C2'         -6.7770     4.0660    -3.4720 c3         1 G3D       0.096100
     16 O2'         -7.6310     5.1990    -3.2980 oh         1 G3D      -0.581800
     17 C1'         -5.4430     4.4830    -4.1290 c3         1 G3D       0.238800
     18 N9          -5.4750     4.2120    -5.5670 na         1 G3D      -0.224900
     19 C8          -5.1170     3.0450    -6.1780 cc         1 G3D       0.399400
     20 N7          -5.2720     3.1550    -7.4650 nd         1 G3D      -0.672000
     21 C5          -5.7340     4.3940    -7.7570 cd         1 G3D       0.059800
     22 C6          -6.0760     5.0600    -8.9570 c          1 G3D       0.677000
     23 O6          -5.9740     4.4990   -10.0350 o          1 G3D      -0.753500
     24 N1          -6.5250     6.3320    -8.8800 ns         1 G3D      -0.481400
     25 C2          -6.6300     6.9520    -7.6700 cd         1 G3D       0.082800
     26 N2          -7.0830     8.2470    -7.6230 nz         1 G3D      -0.611600
     27 N3          -6.3160     6.3440    -6.5480 nc         1 G3D      -0.719100
     28 C4          -5.8700     5.0830    -6.5460 cc         1 G3D       0.156800
     29 P1          -7.7330     3.2090    -0.1050 p5         1 G3D       1.152900
     30 O4P         -8.4130     4.0000     1.1200 o          1 G3D      -0.814833
     31 O5P         -8.8750     2.4770    -0.9720 o          1 G3D      -0.814833
     32 O6P         -6.7910     2.1960     0.4240 o          1 G3D      -0.814833
     33 H5'1        -4.4860     2.3970    -0.3620 h1         1 G3D       0.092700
     34 H5'2        -4.4860     1.5140    -1.8950 h1         1 G3D       0.092700
     35 H4'         -4.5280     4.5510    -1.6040 h1         1 G3D       0.054700
     36 H3'         -6.6380     2.4460    -2.0290 h1         1 G3D       0.095700
     37 H2'         -7.2660     3.3040    -4.0660 h1         1 G3D       0.049700
     38 HO2'        -8.4960     4.9910    -3.6110 ho         1 G3D       0.387000
     39 H1'         -5.2450     5.5310    -3.9420 h2         1 G3D       0.069700
     40 H8          -4.7570     2.1590    -5.6670 h5         1 G3D       0.075100
     41 HN1         -6.7820     6.8220    -9.7140 hn         1 G3D       0.255500
     42 HN21        -8.0440     8.2740    -7.9010 hn         1 G3D       0.336467
     43 HN22        -6.9960     8.5970    -6.6900 hn         1 G3D       0.336467
     44 H23         -6.5390     8.8130    -8.2440 hn         1 G3D       0.336467
@<TRIPOS>BOND
     1     1     2 1
     2     1     3 1
     3     1     4 1
     4     1     6 1
     5     5     6 1
     6     5     7 1
     7     5     8 1
     8     5     9 1
     9     9    10 1
    10    10    11 1
    11    10    33 1
    12    10    34 1
    13    11    12 1
    14    11    13 1
    15    11    35 1
    16    12    17 1
    17    13    14 1
    18    13    15 1
    19    13    36 1
    20    14    29 1
    21    15    16 1
    22    15    17 1
    23    15    37 1
    24    16    38 1
    25    17    18 1
    26    17    39 1
    27    18    19 1
    28    18    28 1
    29    19    20 2
    30    19    40 1
    31    20    21 1
    32    21    22 1
    33    21    28 2
    34    22    23 2
    35    22    24 1
    36    24    25 1
    37    24    41 1
    38    25    26 1
    39    25    27 2
    40    26    42 1
    41    26    43 1
    42    27    28 1
    43    29    30 1
    44    29    31 1
    45    29    32 1
    46    44    26 1
@<TRIPOS>SUBSTRUCTURE
     1 G3D         1 TEMP              0 ****  ****    0 ROOT
