@<TRIPOS>MOLECULE
G3E
   19    20     1     0     0
SMALL
bcc


@<TRIPOS>ATOM
      1 C4           0.0000     0.0000     0.0000 ca         1 G3E      -0.045000
      2 C7          -2.7960     0.0000     2.4370 cc         1 G3E       0.024900
      3 C6           1.4060     0.0000     2.4030 ca         1 G3E      -0.149000
      4 C9          -2.0090    -0.0000     3.6690 c          1 G3E       0.577700
      5 C8           1.3650     0.0000     0.0000 ca         1 G3E      -0.132000
      6 N5          -0.6640    -0.0000     3.6290 ns         1 G3E       0.042900
      7 C1          -0.6970     0.0000     1.2130 ca         1 G3E      -0.104800
      8 C2           0.0140     0.0000     2.4280 ca         1 G3E      -0.080400
      9 C3          -2.1610     0.0000     1.2350 cd         1 G3E      -0.081200
     10 C10          2.0700     0.0000     1.1960 ca         1 G3E      -0.053000
     11 O11         -4.1540     0.0000     2.4930 oh         1 G3E      -0.466100
     12 O12         -2.5780     0.0010     4.7460 o          1 G3E      -0.667500
     13 H4          -0.5430    -0.0000    -0.9380 ha         1 G3E       0.108000
     14 H6           1.9650    -0.0000     3.3310 ha         1 G3E       0.113000
     15 H8           1.9030     0.0000    -0.9400 ha         1 G3E       0.108000
     16 HN5         -0.1470    -0.0000     4.4850 hn         1 G3E       0.177500
     17 H3          -2.7270     0.0000     0.3120 ha         1 G3E       0.121000
     18 H10          3.1530     0.0000     1.1800 ha         1 G3E       0.104000
     19 HO11        -4.4740    -0.8770     2.3590 ho         1 G3E       0.403000
@<TRIPOS>BOND
     1     1     5 ar  
     2     1     7 ar  
     3     1    13 1   
     4     2     4 1   
     5     2     9 2   
     6     2    11 1   
     7     3     8 ar  
     8     3    10 ar  
     9     3    14 1   
    10     4     6 1   
    11     4    12 2   
    12     5    10 ar  
    13     5    15 1   
    14     6     8 1   
    15     6    16 1   
    16     7     8 ar  
    17     7     9 1   
    18     9    17 1   
    19    10    18 1   
    20    11    19 1   
@<TRIPOS>SUBSTRUCTURE
     1 G3E         1 TEMP              0 ****  ****    0 ROOT
