@<TRIPOS>MOLECULE
molecule
   19    20     1     0     0
SMALL
bcc


@<TRIPOS>ATOM
      1 C4           0.0000     0.0000     0.0000 ca         1 G3E      -0.072000
      2 C7          -2.7960     0.0000     2.4370 cc         1 G3E       0.004900
      3 C6           1.4060     0.0000     2.4030 ca         1 G3E      -0.179000
      4 C9          -2.0090    -0.0000     3.6690 c          1 G3E       0.680700
      5 C8           1.3650     0.0000     0.0000 ca         1 G3E      -0.161000
      6 N5          -0.6640    -0.0000     3.6290 ns         1 G3E      -0.427100
      7 C1          -0.6970     0.0000     1.2130 ca         1 G3E      -0.118800
      8 C2           0.0140     0.0000     2.4280 ca         1 G3E       0.083600
      9 C3          -2.1610     0.0000     1.2350 cd         1 G3E      -0.086200
     10 C10          2.0700     0.0000     1.1960 ca         1 G3E      -0.080000
     11 O11         -4.1540     0.0000     2.4930 oh         1 G3E      -0.486100
     12 O12         -2.5780     0.0010     4.7460 o          1 G3E      -0.620500
     13 H4          -0.5430    -0.0000    -0.9380 ha         1 G3E       0.138000
     14 H6           1.9650    -0.0000     3.3310 ha         1 G3E       0.138000
     15 H8           1.9030     0.0000    -0.9400 ha         1 G3E       0.136000
     16 HN5         -0.1470    -0.0000     4.4850 hn         1 G3E       0.342500
     17 H3          -2.7270     0.0000     0.3120 ha         1 G3E       0.151000
     18 H10          3.1530     0.0000     1.1800 ha         1 G3E       0.136000
     19 HO11        -4.4740    -0.8770     2.3590 ho         1 G3E       0.421000
@<TRIPOS>BOND
     1     1     5 ar
     2     1     7 ar
     3     2     4 1
     4     2     9 2
     5     2    11 1
     6     3     8 ar
     7     3    10 ar
     8     4     6 1
     9     4    12 2
    10     5    10 ar
    11     6     8 1
    12     7     8 ar
    13     7     9 1
    14     1    13 1
    15     3    14 1
    16     5    15 1
    17     6    16 1
    18     9    17 1
    19    10    18 1
    20    11    19 1
@<TRIPOS>SUBSTRUCTURE
     1 G3E         1 TEMP              0 ****  ****    0 ROOT
