@<TRIPOS>MOLECULE
G3F
   23    23     1     0     0
SMALL
bcc


@<TRIPOS>ATOM
      1 C1          0.1160   -0.0050   -0.0010 c3        1 G3F      0.309900
      2 O1         -0.2710    0.2170   -1.3340 oh        1 G3F     -0.607800
      3 C2          1.6590   -0.0230    0.0450 c3        1 G3F      0.093100
      4 O2          2.1310   -1.2580   -0.4590 oh        1 G3F     -0.584800
      5 C3          2.1380    0.0760    1.5080 c3        1 G3F      0.137600
      6 F3          3.5120    0.2330    1.5750 f         1 G3F     -0.230300
      7 C4          1.4420    1.2800    2.1930 c3        1 G3F      0.082100
      8 O4          1.7460    1.2980    3.5760 oh        1 G3F     -0.588800
      9 C5         -0.0840    1.1510    2.0650 c3        1 G3F      0.156100
     10 O5         -0.4330    1.1130    0.6800 os        1 G3F     -0.447600
     11 C6         -0.7890    2.3750    2.6540 c3        1 G3F      0.134400
     12 O6         -2.0880    1.9530    3.0340 oh        1 G3F     -0.597800
     13 H1         -0.3170   -0.9680    0.3890 h2        1 G3F      0.058700
     14 HO1        -1.1190    0.6830   -1.3270 ho        1 G3F      0.439000
     15 H2          2.0700    0.8320   -0.5580 h1        1 G3F      0.073700
     16 HO2         1.8550   -1.2980   -1.3840 ho        1 G3F      0.423000
     17 H3          1.8670   -0.8750    2.0520 h1        1 G3F      0.084700
     18 H4          1.7920    2.2340    1.7110 h1        1 G3F      0.061700
     19 HO4         2.7110    1.2910    3.6460 ho        1 G3F      0.420000
     20 H5         -0.4430    0.2150    2.5760 h1        1 G3F      0.081700
     21 H6         -0.2200    2.7240    3.5580 h1        1 G3F      0.048700
     22 H6A        -0.8480    3.1950    1.8910 h1        1 G3F      0.048700
     23 HO6        -2.5630    2.7440    3.3140 ho        1 G3F      0.405000
@<TRIPOS>BOND
     1    1    2 1   
     2    1    3 1   
     3    1   10 1   
     4    1   13 1   
     5    2   14 1   
     6    3    4 1   
     7    3    5 1   
     8    3   15 1   
     9    4   16 1   
    10    5    6 1   
    11    5    7 1   
    12    5   17 1   
    13    7    8 1   
    14    7    9 1   
    15    7   18 1   
    16    8   19 1   
    17    9   10 1   
    18    9   11 1   
    19    9   20 1   
    20   11   12 1   
    21   11   21 1   
    22   11   22 1   
    23   12   23 1   
@<TRIPOS>SUBSTRUCTURE
     1 G3F         1 TEMP              0 ****  ****    0 ROOT
