@<TRIPOS>MOLECULE
molecule
   23    23     1     0     0
SMALL
bcc


@<TRIPOS>ATOM
      1 C1           0.0000     0.0000     0.0000 c3         1 G3F       0.341900
      2 O1          -0.4760     0.0570    -1.3460 oh         1 G3F      -0.575800
      3 C2           1.5310     0.0000     0.0000 c3         1 G3F       0.099100
      4 O2           2.0100    -1.1670    -0.6720 oh         1 G3F      -0.586800
      5 C3           2.0340     0.0000     1.4470 c3         1 G3F       0.132600
      6 F3           3.4310     0.0730     1.4560 f          1 G3F      -0.237300
      7 C4           1.4530     1.2140     2.1780 c3         1 G3F       0.087100
      8 O4           1.8570     1.1840     3.5480 oh         1 G3F      -0.594800
      9 C5          -0.0750     1.1660     2.0940 c3         1 G3F       0.162100
     10 O5          -0.4750     1.1380     0.7220 os         1 G3F      -0.427600
     11 C6          -0.6620     2.4070     2.7710 c3         1 G3F       0.153400
     12 O6          -2.0860     2.3070     2.7950 oh         1 G3F      -0.600800
     13 H1          -0.3590    -0.9040     0.4770 h2         1 G3F       0.040700
     14 HO1         -1.3480    -0.2990    -1.3860 ho         1 G3F       0.419000
     15 H2           1.8910     0.8880    -0.5060 h1         1 G3F       0.066700
     16 HO2          2.6060    -0.9140    -1.3570 ho         1 G3F       0.418000
     17 H3           1.7100    -0.9080     1.9410 h1         1 G3F       0.083700
     18 H4           1.8120     2.1230     1.7100 h1         1 G3F       0.056700
     19 HO4          2.6640     1.6610     3.6480 ho         1 G3F       0.417000
     20 H5          -0.4340     0.2740     2.5920 h1         1 G3F       0.065700
     21 H6          -0.2870     2.4770     3.7850 h1         1 G3F       0.038700
     22 H6A         -0.3720     3.2920     2.2170 h1         1 G3F       0.038700
     23 HO6         -2.4460     3.0460     3.2570 ho         1 G3F       0.406000
@<TRIPOS>BOND
     1     2     1 1
     2     3     1 1
     3     1    10 1
     4     1    13 1
     5     2    14 1
     6     4     3 1
     7     3     5 1
     8     3    15 1
     9     4    16 1
    10     6     5 1
    11     5     7 1
    12     5    17 1
    13     7     9 1
    14     7     8 1
    15     7    18 1
    16     8    19 1
    17    10     9 1
    18     9    11 1
    19     9    20 1
    20    11    12 1
    21    11    21 1
    22    11    22 1
    23    12    23 1
@<TRIPOS>SUBSTRUCTURE
     1 G3F         1 TEMP              0 ****  ****    0 ROOT
