@<TRIPOS>MOLECULE
G3G
   74    78     1     0     0
SMALL
bcc


@<TRIPOS>ATOM
      1 C2           0.0000     0.0000     0.0000 ca         1 G3G      -0.183500
      2 C6           1.3890     0.0000     0.0000 ca         1 G3G       0.091100
      3 C5           2.0800     0.0000     1.2040 ca         1 G3G      -0.183500
      4 C20          1.3850     0.0010     2.3970 ca         1 G3G       0.031000
      5 C27          0.0030     0.0020     2.3940 ca         1 G3G      -0.194000
      6 C18         -0.6890     0.0020     1.1970 ca         1 G3G       0.031000
      7 S9          -0.8810     0.0030     3.9190 sy         1 G3G       1.051700
      8 O40         -2.2000    -0.4300     3.6190 o          1 G3G      -0.593800
      9 O11         -0.0450    -0.6470     4.8670 o          1 G3G      -0.593800
     10 N32         -1.0060     1.5790     4.4110 n3         1 G3G      -0.505000
     11 C33         -2.1620     2.3830     4.0060 c3         1 G3G       0.292100
     12 C34         -3.2280     2.3050     5.0690 ca         1 G3G      -0.127300
     13 C38         -4.1060     1.2370     5.0900 ca         1 G3G      -0.093750
     14 C39         -5.0830     1.1650     6.0650 ca         1 G3G      -0.104750
     15 C37         -5.1800     2.1600     7.0220 ca         1 G3G      -0.092500
     16 C36         -4.3000     3.2270     7.0010 ca         1 G3G      -0.104750
     17 C35         -3.3210     3.2960     6.0280 ca         1 G3G      -0.093750
     18 C24          0.0380     2.1700     5.2510 c3         1 G3G       0.174000
     19 C25          0.4990     3.5210     4.6650 c3         1 G3G       0.100800
     20 N22         -0.3090     4.5380     5.3870 n7         1 G3G      -0.584200
     21 C21         -0.3590     4.0390     6.7850 c3         1 G3G       0.100800
     22 C23         -0.5260     2.5100     6.6470 c3         1 G3G       0.174000
     23 N28          0.2380     1.8190     7.6870 n3         1 G3G      -0.505000
     24 C7          -0.4530     0.9710     8.6630 c3         1 G3G       0.292100
     25 C12         -0.6860    -0.3930     8.0670 ca         1 G3G      -0.127300
     26 C14         -1.8500    -0.6530     7.3690 ca         1 G3G      -0.093750
     27 C30         -2.0640    -1.9050     6.8230 ca         1 G3G      -0.104750
     28 C31         -1.1130    -2.8970     6.9740 ca         1 G3G      -0.092500
     29 C29          0.0520    -2.6360     7.6720 ca         1 G3G      -0.104750
     30 C13          0.2680    -1.3840     8.2150 ca         1 G3G      -0.093750
     31 S8           1.8830     1.9940     7.7610 sy         1 G3G       1.051700
     32 C26          2.2220     3.2340     8.9670 ca         1 G3G      -0.194000
     33 C17          2.2650     2.8990    10.3080 ca         1 G3G       0.031000
     34 C1           2.5300     3.8680    11.2550 ca         1 G3G      -0.183500
     35 C4           2.7540     5.1810    10.8590 ca         1 G3G       0.091100
     36 C3           2.7090     5.5140     9.5120 ca         1 G3G      -0.183500
     37 C19          2.4500     4.5390     8.5690 ca         1 G3G       0.031000
     38 O41          2.3930     0.7750     8.2850 o          1 G3G      -0.593800
     39 O10          2.2860     2.5320     6.5090 o          1 G3G      -0.593800
     40 N42          3.0220     6.1640    11.8150 nv         1 G3G      -0.500700
     41 N43          2.0890    -0.0020    -1.2090 nv         1 G3G      -0.500700
     42 H2          -0.5420     0.0000    -0.9380 ha         1 G3G       0.113500
     43 H5           3.1630    -0.0000     1.2070 ha         1 G3G       0.113500
     44 H20          1.9240     0.0010     3.3370 ha         1 G3G       0.120250
     45 H18         -1.7720     0.0030     1.1970 ha         1 G3G       0.120250
     46 H331        -2.5560     2.0030     3.0710 h1         1 G3G       0.024450
     47 H332        -1.8570     3.4140     3.8760 h1         1 G3G       0.024450
     48 H38         -4.0300     0.4580     4.3410 ha         1 G3G       0.129250
     49 H39         -5.7720     0.3290     6.0820 ha         1 G3G       0.100250
     50 H37         -5.9460     2.1040     7.7850 ha         1 G3G       0.096000
     51 H36         -4.3740     4.0050     7.7510 ha         1 G3G       0.100250
     52 H35         -2.6320     4.1320     6.0120 ha         1 G3G       0.129250
     53 H24          0.8810     1.4960     5.3430 h1         1 G3G       0.086700
     54 H251         1.5540     3.6740     4.8550 h1         1 G3G       0.030700
     55 H252         0.2910     3.5610     3.6020 h1         1 G3G       0.030700
     56 HN22         0.1650     5.4190     5.3640 hn         1 G3G       0.250800
     57 H211        -1.2070     4.4650     7.3060 h1         1 G3G       0.030700
     58 H212         0.5650     4.2720     7.3000 h1         1 G3G       0.030700
     59 H23         -1.5740     2.2420     6.7020 h1         1 G3G       0.086700
     60 H71          0.1560     0.8770     9.5540 h1         1 G3G       0.024450
     61 H72         -1.4040     1.4200     8.9210 h1         1 G3G       0.024450
     62 H14         -2.5960     0.1240     7.2500 ha         1 G3G       0.129250
     63 H30         -2.9770    -2.1090     6.2760 ha         1 G3G       0.100250
     64 H31         -1.2810    -3.8780     6.5470 ha         1 G3G       0.096000
     65 H29          0.7980    -3.4130     7.7890 ha         1 G3G       0.100250
     66 H13          1.1810    -1.1800     8.7610 ha         1 G3G       0.129250
     67 H17          2.0910     1.8750    10.6160 ha         1 G3G       0.120250
     68 H1           2.5640     3.6050    12.3050 ha         1 G3G       0.113500
     69 H3           2.8850     6.5370     9.2000 ha         1 G3G       0.113500
     70 H19          2.4150     4.7980     7.5180 ha         1 G3G       0.120250
     71 H421         3.9660     6.3510    12.0890 hn         1 G3G       0.273300
     72 H422         2.2700     6.6810    12.2260 hn         1 G3G       0.273300
     73 H431         3.0900    -0.0030    -1.2080 hn         1 G3G       0.273300
     74 H432         1.5900    -0.0030    -2.0770 hn         1 G3G       0.273300
@<TRIPOS>BOND
     1     1     2 ar  
     2     1     6 ar  
     3     1    42 1   
     4     2     3 ar  
     5     2    41 1   
     6     3     4 ar  
     7     3    43 1   
     8     4     5 ar  
     9     4    44 1   
    10     5     6 ar  
    11     5     7 1   
    12     6    45 1   
    13     7     8 2   
    14     7     9 2   
    15     7    10 1   
    16    10    11 1   
    17    10    18 1   
    18    11    12 1   
    19    11    46 1   
    20    11    47 1   
    21    12    13 ar  
    22    12    17 ar  
    23    13    14 ar  
    24    13    48 1   
    25    14    15 ar  
    26    14    49 1   
    27    15    16 ar  
    28    15    50 1   
    29    16    17 ar  
    30    16    51 1   
    31    17    52 1   
    32    18    19 1   
    33    18    22 1   
    34    18    53 1   
    35    19    20 1   
    36    19    54 1   
    37    19    55 1   
    38    20    21 1   
    39    20    56 1   
    40    21    22 1   
    41    21    57 1   
    42    21    58 1   
    43    22    23 1   
    44    22    59 1   
    45    23    24 1   
    46    23    31 1   
    47    24    25 1   
    48    24    60 1   
    49    24    61 1   
    50    25    26 ar  
    51    25    30 ar  
    52    26    27 ar  
    53    26    62 1   
    54    27    28 ar  
    55    27    63 1   
    56    28    29 ar  
    57    28    64 1   
    58    29    30 ar  
    59    29    65 1   
    60    30    66 1   
    61    31    32 1   
    62    31    38 2   
    63    31    39 2   
    64    32    33 ar  
    65    32    37 ar  
    66    33    34 ar  
    67    33    67 1   
    68    34    35 ar  
    69    34    68 1   
    70    35    36 ar  
    71    35    40 1   
    72    36    37 ar  
    73    36    69 1   
    74    37    70 1   
    75    40    71 1   
    76    40    72 1   
    77    41    73 1   
    78    41    74 1   
@<TRIPOS>SUBSTRUCTURE
     1 G3G         1 TEMP              0 ****  ****    0 ROOT
