@<TRIPOS>MOLECULE
molecule
   15    14     1     0     0
SMALL
bcc


@<TRIPOS>ATOM
      1 O1           0.0000     0.0000     0.0000 o          1 G3H      -0.563100
      2 C1           1.2080     0.0000     0.0000 c          1 G3H       0.550900
      3 C2           1.9610     0.0000     1.3060 c3         1 G3H       0.021100
      4 O2           1.0320     0.0000     2.3920 oh         1 G3H      -0.565800
      5 C3           2.8410     1.2490     1.3870 c3         1 G3H       0.230400
      6 O1P          3.6420     1.1920     2.5690 os         1 G3H      -0.568200
      7 O2P          3.9920     3.6500     3.0230 o          1 G3H      -0.907833
      8 O3P          5.3150     2.0180     4.4210 o          1 G3H      -0.907833
      9 O4P          5.8690     2.4080     1.8810 o          1 G3H      -0.907833
     10 P            4.6900     2.3460     2.9750 p5         1 G3H       1.177900
     11 H11          1.7490    -0.0400    -0.9370 h4         1 G3H      -0.029800
     12 H2           2.5840    -0.8840     1.3640 h1         1 G3H       0.047700
     13 HO2          0.9900    -0.8630     2.7700 ho         1 G3H       0.376000
     14 H31          3.4840     1.2950     0.5160 h1         1 G3H       0.023200
     15 H32          2.2130     2.1310     1.4180 h1         1 G3H       0.023200
@<TRIPOS>BOND
     1     1     2 2
     2     2     3 1
     3     2    11 1
     4     3     4 1
     5     3     5 1
     6     3    12 1
     7     4    13 1
     8     5     6 1
     9     5    14 1
    10     5    15 1
    11     6    10 1
    12     7    10 1
    13     8    10 1
    14     9    10 1
@<TRIPOS>SUBSTRUCTURE
     1 G3H         1 TEMP              0 ****  ****    0 ROOT
