@<TRIPOS>MOLECULE
G3H
   15    14     1     0     0
SMALL
bcc


@<TRIPOS>ATOM
      1 O1          0.3670   -0.5720   -0.3060 o         1 G3H     -0.611100
      2 C1          1.4290    0.0050   -0.0400 c         1 G3H      0.583900
      3 C2          2.1080    0.1040    1.2840 c3        1 G3H     -0.035900
      4 O2          1.3070   -0.4670    2.3080 oh        1 G3H     -0.638800
      5 C3          2.4510    1.5920    1.6100 c3        1 G3H      0.227400
      6 O1P         2.9500    1.6830    2.8760 os        1 G3H     -0.557200
      7 O2P         4.7690    3.2880    2.1640 o         1 G3H     -0.927500
      8 O3P         5.0150    1.9650    4.3510 o         1 G3H     -0.927500
      9 O4P         5.1090    0.7740    2.0740 o         1 G3H     -0.927500
     10 P           4.6910    1.9720    2.8870 p5        1 G3H      1.309900
     11 H11         1.9980    0.5180   -0.8550 h4        1 G3H     -0.036800
     12 H2          3.0870   -0.4650    1.2320 h1        1 G3H      0.114700
     13 HO2         1.6130   -0.0390    3.1260 ho        1 G3H      0.438000
     14 H31         1.4870    2.1770    1.5290 h1        1 G3H     -0.005300
     15 H32         3.1850    1.9650    0.8430 h1        1 G3H     -0.005300
@<TRIPOS>BOND
     1    1    2 2   
     2    2    3 1   
     3    2   11 1   
     4    3    4 1   
     5    3    5 1   
     6    3   12 1   
     7    4   13 1   
     8    5    6 1   
     9    5   14 1   
    10    5   15 1   
    11    6   10 1   
    12    7   10 1   
    13    8   10 1   
    14    9   10 1   
@<TRIPOS>SUBSTRUCTURE
     1 G3H         1 TEMP              0 ****  ****    0 ROOT
