@<TRIPOS>MOLECULE
molecule
   48    50     1     0     0
SMALL
bcc


@<TRIPOS>ATOM
      1 C1           0.0000     0.0000     0.0000 c          1 G3K       0.644700
      2 C10          1.2860     0.7240     5.0680 c          1 G3K       0.668100
      3 C11          2.1160     0.5200     6.3090 c3         1 G3K       0.093800
      4 C12          1.2270     0.6610     7.5460 c3         1 G3K      -0.107100
      5 C13          2.7350    -0.8790     6.2840 c3         1 G3K      -0.107100
      6 C14          2.7710     2.8020     6.4270 ca         1 G3K       0.173100
      7 C15          3.7230     3.7980     6.5940 ca         1 G3K      -0.167500
      8 C16          3.3320     5.1210     6.6620 ca         1 G3K      -0.093000
      9 C17          1.9920     5.4530     6.5640 ca         1 G3K      -0.015600
     10 C18          1.0410     4.4620     6.3970 ca         1 G3K      -0.093000
     11 C19          1.4290     3.1380     6.3290 ca         1 G3K      -0.167500
     12 C2           1.4690     0.0000     0.0000 cc         1 G3K      -0.058100
     13 C3           2.1140     0.0000     1.2270 cd         1 G3K       0.133400
     14 C4           3.5920     0.0010     1.2940 c          1 G3K       0.891800
     15 C5           0.0840    -0.0020     2.3430 cc         1 G3K       0.393900
     16 C6          -0.6550    -0.0040     3.6580 c3         1 G3K       0.098400
     17 C7          -1.6110    -1.2130     3.7190 c3         1 G3K      -0.098400
     18 C8          -1.4950    -1.6710     5.1990 c3         1 G3K      -0.100400
     19 C9          -0.0020    -1.3890     5.4960 c3         1 G3K       0.092000
     20 N1           1.3830    -0.0010     2.3580 nd         1 G3K      -0.541300
     21 N2           0.2990    -0.1430     4.7660 n          1 G3K      -0.480800
     22 N3          -0.6330    -0.0010     1.1940 ns         1 G3K      -0.450400
     23 O1          -0.6280     0.0060    -1.0440 o          1 G3K      -0.692500
     24 O2           2.1700     0.0010    -1.1600 oh         1 G3K      -0.433100
     25 O3           4.2120    -0.0000     2.4890 o          1 G3K      -0.803300
     26 O4           4.2450     0.0020     0.2710 o          1 G3K      -0.803300
     27 O5           3.1550     1.5010     6.3540 os         1 G3K      -0.276900
     28 O6           1.5070     1.6680     4.3390 o          1 G3K      -0.528100
     29 Cl1          1.5040     7.1170     6.6490 cl         1 G3K      -0.144400
     30 H1           1.6060     1.4600     8.1730 hc         1 G3K       0.053533
     31 H2           1.2320    -0.2680     8.1020 hc         1 G3K       0.053533
     32 H3           0.2150     0.8930     7.2380 hc         1 G3K       0.053533
     33 H4           2.1240    -1.5550     6.8700 hc         1 G3K       0.053533
     34 H5           2.7880    -1.2320     5.2620 hc         1 G3K       0.053533
     35 H6           3.7330    -0.8400     6.7040 hc         1 G3K       0.053533
     36 H7           4.7720     3.5390     6.6720 ha         1 G3K       0.148000
     37 H8           4.0750     5.8990     6.7920 ha         1 G3K       0.134500
     38 H9          -0.0070     4.7240     6.3210 ha         1 G3K       0.134500
     39 H10          0.6840     2.3620     6.1980 ha         1 G3K       0.148000
     40 H11         -1.2180     0.9150     3.7710 h1         1 G3K       0.061700
     41 H12         -2.6260    -0.9100     3.4920 hc         1 G3K       0.057700
     42 H13         -1.2780    -1.9980     3.0500 hc         1 G3K       0.057700
     43 H14         -1.7140    -2.7270     5.2940 hc         1 G3K       0.048700
     44 H15         -2.1360    -1.0750     5.8380 hc         1 G3K       0.048700
     45 H16          0.1480    -1.2470     6.5600 h1         1 G3K       0.051200
     46 H17          0.6140    -2.1990     5.1270 h1         1 G3K       0.051200
     47 H18         -1.6330    -0.0010     1.2290 hn         1 G3K       0.308500
     48 H19          1.8660     0.7030    -1.7110 ho         1 G3K       0.401000
@<TRIPOS>BOND
     1     5     3 1
     2    23     1 2
     3     4     3 1
     4    11    10 ar
     5    11     6 ar
     6    27     3 1
     7    27     6 1
     8     3     2 1
     9    10     9 ar
    10     6     7 ar
    11     1    22 1
    12     1    12 1
    13    24    12 1
    14    22    15 1
    15    12    13 2
    16     2    28 2
    17     2    21 1
    18     9    29 1
    19     9     8 ar
    20    19    21 1
    21    19    18 1
    22     7     8 ar
    23    21    16 1
    24    15    20 2
    25    15    16 1
    26    13    20 1
    27    13    14 1
    28    18    17 1
    29    26    14 1
    30    16    17 1
    31    14    25 1
    32     4    30 1
    33     4    31 1
    34     4    32 1
    35     5    33 1
    36     5    34 1
    37     5    35 1
    38     7    36 1
    39     8    37 1
    40    10    38 1
    41    11    39 1
    42    16    40 1
    43    17    41 1
    44    17    42 1
    45    18    43 1
    46    18    44 1
    47    19    45 1
    48    19    46 1
    49    22    47 1
    50    24    48 1
@<TRIPOS>SUBSTRUCTURE
     1 G3K         1 TEMP              0 ****  ****    0 ROOT
