@<TRIPOS>MOLECULE
molecule
   56    58     1     0     0
SMALL
bcc


@<TRIPOS>ATOM
      1 O2B          0.0000     0.0000     0.0000 o          1 G3N      -0.806000
      2 PB           1.6100     0.0000     0.0000 p5         1 G3N       1.397800
      3 O1B          2.1030     0.0000     1.3950 o          1 G3N      -0.806000
      4 O3B          2.1470    -1.3140    -0.7600 os         1 G3N      -0.547200
      5 C1'          1.9290    -2.6390    -0.2700 c3         1 G3N       0.421900
      6 O5'          0.7060    -3.1500    -0.8050 os         1 G3N      -0.353600
      7 C5'          0.3780    -4.4650    -0.3560 c3         1 G3N       0.151400
      8 C4'          1.4740    -5.4400    -0.7930 c3         1 G3N       0.047500
      9 N4'          1.1700    -6.7830    -0.2810 nz         1 G3N      -0.805600
     10 C3'          2.8190    -4.9700    -0.2260 c3         1 G3N       0.110100
     11 O3'          2.7720    -4.9980     1.2020 oh         1 G3N      -0.603800
     12 C2'          3.0880    -3.5400    -0.7020 c3         1 G3N       0.102100
     13 O2'          3.2000    -3.5240    -2.1270 oh         1 G3N      -0.598800
     14 O3A          2.1470     1.3150    -0.7590 os         1 G3N      -0.710800
     15 PA           2.3300     2.8560    -0.3320 p5         1 G3N       1.425800
     16 O1A          0.8900     3.5770    -0.2920 o          1 G3N      -0.825500
     17 O2A          2.9530     2.9260     1.0080 o          1 G3N      -0.825500
     18 O5D          3.2730     3.6010    -1.4020 os         1 G3N      -0.601200
     19 C5D          3.7100     4.9530    -1.2470 c3         1 G3N       0.240400
     20 C4D          4.5880     5.3460    -2.4370 c3         1 G3N       0.122100
     21 C3D          5.1740     6.7600    -2.2310 c3         1 G3N       0.093100
     22 O3D          6.5120     6.6800    -1.7340 oh         1 G3N      -0.574800
     23 C2D          5.1580     7.3840    -3.6440 c3         1 G3N       0.078100
     24 O2D          6.4850     7.7070    -4.0630 oh         1 G3N      -0.569800
     25 O4D          3.7910     5.4490    -3.6380 os         1 G3N      -0.382600
     26 C1D          4.5640     6.2720    -4.5370 c3         1 G3N       0.291500
     27 N1           3.6980     6.8530    -5.5670 n          1 G3N      -0.355000
     28 C6           2.5520     7.5040    -5.1990 cc         1 G3N       0.066600
     29 C5           1.7570     8.0450    -6.1470 cd         1 G3N      -0.351200
     30 C4           2.1290     7.9260    -7.5080 c          1 G3N       0.709700
     31 O4           1.4290     8.4060    -8.3810 o          1 G3N      -0.645500
     32 N3           3.2660     7.2770    -7.8290 ns         1 G3N      -0.566500
     33 C2           4.0410     6.7470    -6.8630 c          1 G3N       0.815500
     34 O2           5.0660     6.1700    -7.1660 o          1 G3N      -0.655500
     35 H2           1.8700    -2.6240     0.8120 h2         1 G3N       0.077700
     36 H3          -0.5670    -4.7680    -0.7900 h1         1 G3N       0.060200
     37 H4           0.3020    -4.4690     0.7250 h1         1 G3N       0.060200
     38 H5           1.5270    -5.4620    -1.8740 hx         1 G3N       0.137700
     39 H6           2.0010    -7.1920     0.0970 hn         1 G3N       0.443467
     40 H7           0.4740    -6.7180     0.4350 hn         1 G3N       0.443467
     41 H9           3.6070    -5.6230    -0.5810 h1         1 G3N       0.031700
     42 H10          3.6000    -5.2970     1.5380 ho         1 G3N       0.423000
     43 H11          4.0090    -3.1810    -0.2580 h1         1 G3N       0.081700
     44 H12          4.0000    -3.0910    -2.3750 ho         1 G3N       0.427000
     45 H14          4.2820     5.0440    -0.3310 h1         1 G3N       0.039200
     46 H15          2.8490     5.6080    -1.2020 h1         1 G3N       0.039200
     47 H16          5.3850     4.6260    -2.5780 h1         1 G3N       0.083700
     48 H17          4.5470     7.3330    -1.5580 h1         1 G3N       0.052700
     49 H18          6.5990     7.2320    -0.9740 ho         1 G3N       0.397000
     50 H19          4.5230     8.2610    -3.6610 h1         1 G3N       0.038700
     51 H20          6.5870     8.6450    -4.0890 ho         1 G3N       0.395000
     52 H21          5.3580     5.6900    -4.9890 h2         1 G3N       0.123700
     53 H22          2.2840     7.5850    -4.1530 h4         1 G3N       0.184000
     54 H23          0.8470     8.5630    -5.8700 ha         1 G3N       0.176000
     55 H24          3.5360     7.1890    -8.7890 hn         1 G3N       0.354500
     56 H4'3         0.8470    -7.3610    -1.0320 hn         1 G3N       0.443467
@<TRIPOS>BOND
     1     7     8 1
     2     7     6 1
     3     9     8 1
     4     8    10 1
     5     6     5 1
     6     5     4 1
     7     5    12 1
     8    11    10 1
     9    10    12 1
    10     4     2 1
    11    12    13 1
    12     3     2 1
    13     2     1 1
    14     2    14 1
    15    31    30 2
    16    29    30 1
    17    29    28 2
    18    14    15 1
    19    30    32 1
    20    16    15 1
    21    28    27 1
    22    15    18 1
    23    15    17 1
    24    32    33 1
    25    18    19 1
    26    19    20 1
    27    27    33 1
    28    27    26 1
    29    33    34 2
    30    25    26 1
    31    25    20 1
    32    23    26 1
    33    23    24 1
    34    23    21 1
    35    20    21 1
    36    21    22 1
    37     5    35 1
    38     7    36 1
    39     7    37 1
    40     8    38 1
    41     9    39 1
    42     9    40 1
    43    10    41 1
    44    11    42 1
    45    12    43 1
    46    13    44 1
    47    19    45 1
    48    19    46 1
    49    20    47 1
    50    21    48 1
    51    22    49 1
    52    23    50 1
    53    24    51 1
    54    26    52 1
    55    28    53 1
    56    29    54 1
    57    32    55 1
    58    56     9 1
@<TRIPOS>SUBSTRUCTURE
     1 G3N         1 TEMP              0 ****  ****    0 ROOT
