@<TRIPOS>MOLECULE
G3N
   56    58     1     0     0
SMALL
bcc


@<TRIPOS>ATOM
      1 O2B          0.0000     0.0000     0.0000 o          1 G3N      -0.649500
      2 PB           1.6100     0.0000     0.0000 p5         1 G3N       0.931800
      3 O1B          2.1030     0.0000     1.3950 o          1 G3N      -0.649500
      4 O3B          2.1470    -1.3140    -0.7600 os         1 G3N      -0.459200
      5 C1'          1.9290    -2.6390    -0.2700 c3         1 G3N       0.466900
      6 O5'          0.7060    -3.1500    -0.8050 os         1 G3N      -0.348600
      7 C5'          0.3780    -4.4650    -0.3560 c3         1 G3N       0.232400
      8 C4'          1.4740    -5.4400    -0.7930 c3         1 G3N      -0.150500
      9 N4'          1.1700    -6.7830    -0.2810 nz         1 G3N       0.078400
     10 C3'          2.8190    -4.9700    -0.2260 c3         1 G3N       0.171100
     11 O3'          2.7720    -4.9980     1.2020 oh         1 G3N      -0.586800
     12 C2'          3.0880    -3.5400    -0.7020 c3         1 G3N       0.121100
     13 O2'          3.2000    -3.5240    -2.1270 oh         1 G3N      -0.585800
     14 O3A          2.1470     1.3150    -0.7590 os         1 G3N      -0.488800
     15 PA           2.3300     2.8560    -0.3320 p5         1 G3N       0.953800
     16 O1A          0.8900     3.5770    -0.2920 o          1 G3N      -0.662500
     17 O2A          2.9530     2.9260     1.0080 o          1 G3N      -0.662500
     18 O5D          3.2730     3.6010    -1.4020 os         1 G3N      -0.503200
     19 C5D          3.7100     4.9530    -1.2470 c3         1 G3N       0.313400
     20 C4D          4.5880     5.3460    -2.4370 c3         1 G3N       0.145100
     21 C3D          5.1740     6.7600    -2.2310 c3         1 G3N       0.133100
     22 O3D          6.5120     6.6800    -1.7340 oh         1 G3N      -0.556800
     23 C2D          5.1580     7.3840    -3.6440 c3         1 G3N       0.113100
     24 O2D          6.4850     7.7070    -4.0630 oh         1 G3N      -0.547800
     25 O4D          3.7910     5.4490    -3.6380 os         1 G3N      -0.369600
     26 C1D          4.5640     6.2720    -4.5370 c3         1 G3N       0.183500
     27 N1           3.6980     6.8530    -5.5670 n          1 G3N       0.063000
     28 C6           2.5520     7.5040    -5.1990 cc         1 G3N      -0.053400
     29 C5           1.7570     8.0450    -6.1470 cd         1 G3N      -0.331200
     30 C4           2.1290     7.9260    -7.5080 c          1 G3N       0.622700
     31 O4           1.4290     8.4060    -8.3810 o          1 G3N      -0.688500
     32 N3           3.2660     7.2770    -7.8290 ns         1 G3N      -0.136500
     33 C2           4.0410     6.7470    -6.8630 c          1 G3N       0.591500
     34 O2           5.0660     6.1700    -7.1660 o          1 G3N      -0.707500
     35 H2           1.8700    -2.6240     0.8120 h2         1 G3N       0.023700
     36 H3          -0.5670    -4.7680    -0.7900 h1         1 G3N       0.012700
     37 H4           0.3020    -4.4690     0.7250 h1         1 G3N       0.012700
     38 H5           1.5270    -5.4620    -1.8740 hx         1 G3N       0.112700
     39 H6           2.0010    -7.1920     0.0970 hn         1 G3N       0.211467
     40 H7           0.4740    -6.7180     0.4350 hn         1 G3N       0.211467
     41 H9           3.6070    -5.6230    -0.5810 h1         1 G3N      -0.008300
     42 H10          3.6000    -5.2970     1.5380 ho         1 G3N       0.409000
     43 H11          4.0090    -3.1810    -0.2580 h1         1 G3N       0.037700
     44 H12          4.0000    -3.0910    -2.3750 ho         1 G3N       0.410000
     45 H14          4.2820     5.0440    -0.3310 h1         1 G3N      -0.013800
     46 H15          2.8490     5.6080    -1.2020 h1         1 G3N      -0.013800
     47 H16          5.3850     4.6260    -2.5780 h1         1 G3N       0.041700
     48 H17          4.5470     7.3330    -1.5580 h1         1 G3N       0.016700
     49 H18          6.5990     7.2320    -0.9740 ho         1 G3N       0.379000
     50 H19          4.5230     8.2610    -3.6610 h1         1 G3N       0.002700
     51 H20          6.5870     8.6450    -4.0890 ho         1 G3N       0.376000
     52 H21          5.3580     5.6900    -4.9890 h2         1 G3N       0.086700
     53 H22          2.2840     7.5850    -4.1530 h4         1 G3N       0.151000
     54 H23          0.8470     8.5630    -5.8700 ha         1 G3N       0.148000
     55 H24          3.5360     7.1890    -8.7890 hn         1 G3N       0.197500
     56 H4'3         0.8470    -7.3610    -1.0320 hn         1 G3N       0.211467
@<TRIPOS>BOND
     1     1     2 1   
     2     2     3 1   
     3     2     4 1   
     4     2    14 1   
     5     4     5 1   
     6     5     6 1   
     7     5    12 1   
     8     5    35 1   
     9     6     7 1   
    10     7     8 1   
    11     7    36 1   
    12     7    37 1   
    13     8     9 1   
    14     8    10 1   
    15     8    38 1   
    16     9    39 1   
    17     9    40 1   
    18     9    56 1   
    19    10    11 1   
    20    10    12 1   
    21    10    41 1   
    22    11    42 1   
    23    12    13 1   
    24    12    43 1   
    25    13    44 1   
    26    14    15 1   
    27    15    16 1   
    28    15    17 1   
    29    15    18 1   
    30    18    19 1   
    31    19    20 1   
    32    19    45 1   
    33    19    46 1   
    34    20    21 1   
    35    20    25 1   
    36    20    47 1   
    37    21    22 1   
    38    21    23 1   
    39    21    48 1   
    40    22    49 1   
    41    23    24 1   
    42    23    26 1   
    43    23    50 1   
    44    24    51 1   
    45    25    26 1   
    46    26    27 1   
    47    26    52 1   
    48    27    28 1   
    49    27    33 1   
    50    28    29 2   
    51    28    53 1   
    52    29    30 1   
    53    29    54 1   
    54    30    31 2   
    55    30    32 1   
    56    32    33 1   
    57    32    55 1   
    58    33    34 2   
@<TRIPOS>SUBSTRUCTURE
     1 G3N         1 TEMP              0 ****  ****    0 ROOT
