@<TRIPOS>MOLECULE
G3P
   17    16     1     0     0
SMALL
bcc


@<TRIPOS>ATOM
      1 O1          0.9330   -1.0170   -0.3350 oh        1 G3P     -0.660800
      2 C1          2.0820   -0.2900    0.0970 c3        1 G3P      0.072400
      3 C2          1.7680    0.5450    1.3400 c3        1 G3P      0.080100
      4 O2          1.0720   -0.2680    2.2730 oh        1 G3P     -0.667800
      5 C3          3.0620    1.1430    1.9480 c3        1 G3P      0.210400
      6 O1P         3.5720    0.3190    2.9150 os        1 G3P     -0.566200
      7 O4P         5.5470   -1.0100    3.8010 o         1 G3P     -0.928500
      8 O2P         4.8300   -1.1270    1.3400 o         1 G3P     -0.928500
      9 O3P         5.9150    0.9910    2.2360 o         1 G3P     -0.928500
     10 P           5.1780   -0.2840    2.5410 p5        1 G3P      1.314900
     11 HO1         0.6000   -1.4650    0.4520 ho        1 G3P      0.399000
     12 H11         2.9390   -0.9960    0.3130 h1        1 G3P      0.084200
     13 H12         2.3410    0.3760   -0.7660 h1        1 G3P      0.084200
     14 H2          1.0400    1.3610    1.0750 h1        1 G3P     -0.001300
     15 HO2         1.7450   -0.6410    2.8680 ho        1 G3P      0.447000
     16 H31         3.8100    1.3270    1.1270 h1        1 G3P     -0.005300
     17 H32         2.7690    2.1370    2.4050 h1        1 G3P     -0.005300
@<TRIPOS>BOND
     1    1    2 1   
     2    1   11 1   
     3    2    3 1   
     4    2   12 1   
     5    2   13 1   
     6    3    4 1   
     7    3    5 1   
     8    3   14 1   
     9    4   15 1   
    10    5    6 1   
    11    5   16 1   
    12    5   17 1   
    13    6   10 1   
    14    7   10 1   
    15    8   10 1   
    16    9   10 1   
@<TRIPOS>SUBSTRUCTURE
     1 G3P         1 TEMP              0 ****  ****    0 ROOT
