@<TRIPOS>MOLECULE
molecule
   17    16     1     0     0
SMALL
bcc


@<TRIPOS>ATOM
      1 O1           0.0000     0.0000     0.0000 oh         1 G3P      -0.623800
      2 C1           1.4290     0.0000     0.0000 c3         1 G3P       0.114400
      3 C2           1.9390     0.0000     1.4420 c3         1 G3P       0.139100
      4 O2           1.5610    -1.2210     2.0810 oh         1 G3P      -0.598800
      5 C3           3.4630     0.1250     1.4450 c3         1 G3P       0.216400
      6 O1P          3.9300     0.2420     2.7900 os         1 G3P      -0.573200
      7 O4P          5.6570     0.3670     4.7700 o          1 G3P      -0.910167
      8 O2P          6.2500    -0.7280     2.5740 o          1 G3P      -0.910167
      9 O3P          6.0470     1.7880     2.5920 o          1 G3P      -0.910167
     10 P            5.4870     0.3930     3.1680 p5         1 G3P       1.180900
     11 HO1         -0.3140     0.0830    -0.8850 ho         1 G3P       0.370000
     12 H11          1.7900    -0.8840    -0.5110 h1         1 G3P       0.021200
     13 H12          1.7900     0.8840    -0.5110 h1         1 G3P       0.021200
     14 H2           1.5070     0.8370     1.9780 h1         1 G3P       0.037700
     15 HO2          1.0190    -1.0300     2.8290 ho         1 G3P       0.390000
     16 H31          3.8990    -0.7550     0.9870 h1         1 G3P       0.017200
     17 H32          3.7540     1.0050     0.8840 h1         1 G3P       0.017200
@<TRIPOS>BOND
     1     1     2 1
     2     2     3 1
     3     3     4 1
     4     3     5 1
     5     5     6 1
     6     6    10 1
     7     7    10 1
     8     8    10 1
     9     9    10 1
    10     1    11 1
    11     2    12 1
    12     2    13 1
    13     3    14 1
    14     4    15 1
    15     5    16 1
    16     5    17 1
@<TRIPOS>SUBSTRUCTURE
     1 G3P         1 TEMP              0 ****  ****    0 ROOT
