@<TRIPOS>MOLECULE
molecule
   46    50     1     0     0
SMALL
bcc


@<TRIPOS>ATOM
      1 O1           0.0000     0.0000     0.0000 oh         1 G3R      -0.606800
      2 C2           1.4290     0.0000     0.0000 c3         1 G3R       0.123400
      3 C3           1.9390     0.0000     1.4430 c3         1 G3R       0.237800
      4 N4           1.5520    -1.2510     2.0980 nu         1 G3R      -0.811600
      5 C6           1.9060    -1.4810     3.4270 ca         1 G3R       0.231600
      6 C7           2.6320    -0.5160     4.1260 ca         1 G3R      -0.217000
      7 C19          2.9900    -0.7210     5.4270 ca         1 G3R      -0.026000
      8 C8           1.5320    -2.6640     4.0400 ca         1 G3R      -0.268300
      9 C9           1.8890    -2.8920     5.3700 ca         1 G3R       0.479600
     10 C18          2.6290    -1.9070     6.0660 ca         1 G3R      -0.206300
     11 N10          1.5430    -4.0360     6.0100 nc         1 G3R      -0.714000
     12 C11          1.8710    -4.2590     7.2470 cd         1 G3R       0.600800
     13 N12          2.5800    -3.3720     7.9980 na         1 G3R      -0.016800
     14 N13          3.0450    -3.3790     9.3200 nc         1 G3R      -0.661100
     15 C17          2.9850    -2.1800     7.4610 cc         1 G3R       0.083700
     16 N16          3.6410    -1.5190     8.3920 nd         1 G3R      -0.495300
     17 C14          3.6810    -2.2430     9.5110 cd         1 G3R       0.807200
     18 N15          4.2950    -1.8560    10.7000 nv         1 G3R      -0.953800
     19 C20          1.4450    -5.5580     7.8800 c3         1 G3R      -0.072400
     20 C21          0.6790    -6.3790     6.8750 ca         1 G3R      -0.066300
     21 C22          1.3490    -7.2660     6.0540 ca         1 G3R      -0.094000
     22 C23          0.6460    -8.0210     5.1290 ca         1 G3R       0.048100
     23 O24          1.0590    -8.9500     4.2180 os         1 G3R      -0.328900
     24 C25         -0.0280    -9.0820     3.2840 c3         1 G3R       0.332200
     25 O26         -1.1900    -8.7290     4.0580 os         1 G3R      -0.329900
     26 C27         -0.7360    -7.8860     5.0320 ca         1 G3R       0.048100
     27 C28         -1.4020    -6.9950     5.8580 ca         1 G3R      -0.111000
     28 C29         -0.6940    -6.2480     6.7820 ca         1 G3R      -0.107000
     29 H1          -0.3140     0.2070    -0.8640 ho         1 G3R       0.406000
     30 H21C         1.7900    -0.8840    -0.5110 h1         1 G3R       0.031700
     31 H22C         1.7900     0.8850    -0.5110 h1         1 G3R       0.031700
     32 H31C         3.0190     0.0890     1.4440 h1         1 G3R       0.050200
     33 H32C         1.5080     0.8370     1.9780 h1         1 G3R       0.050200
     34 H4           1.0500    -1.9500     1.5850 hn         1 G3R       0.450800
     35 H7           2.9140     0.4060     3.6310 ha         1 G3R       0.136000
     36 H8           1.0750    -3.4550     3.4580 ha         1 G3R       0.152000
     37 H19          3.5530     0.0340     5.9610 ha         1 G3R       0.152000
     38 H201         0.8130    -5.3530     8.7360 hc         1 G3R       0.081700
     39 H202         2.3220    -6.1080     8.2020 hc         1 G3R       0.081700
     40 H151         4.2760    -2.4630    11.4950 hn         1 G3R       0.450800
     41 H152         4.7570    -0.9700    10.7590 hn         1 G3R       0.450800
     42 H22          2.4190    -7.4000     6.1600 ha         1 G3R       0.143000
     43 H29         -1.2180    -5.5680     7.4430 ha         1 G3R       0.140000
     44 H251        -0.1060   -10.1100     2.9520 h2         1 G3R       0.069200
     45 H252         0.0990    -8.3780     2.4700 h2         1 G3R       0.069200
     46 H28         -2.4780    -6.8910     5.7870 ha         1 G3R       0.143000
@<TRIPOS>BOND
     1     1     2 1
     2     2     3 1
     3     3     4 1
     4     4     5 1
     5     5     6 ar
     6     5     8 ar
     7     6     7 ar
     8     7    10 ar
     9     8     9 ar
    10     9    10 ar
    11     9    11 1
    12    10    15 1
    13    11    12 2
    14    12    13 1
    15    12    19 1
    16    13    14 1
    17    13    15 1
    18    14    17 2
    19    15    16 2
    20    16    17 1
    21    17    18 1
    22    19    20 1
    23    20    21 ar
    24    20    28 ar
    25    21    22 ar
    26    22    23 1
    27    22    26 ar
    28    23    24 1
    29    24    25 1
    30    25    26 1
    31    26    27 ar
    32    27    28 ar
    33     1    29 1
    34     2    30 1
    35     2    31 1
    36     3    32 1
    37     3    33 1
    38     4    34 1
    39     6    35 1
    40     8    36 1
    41     7    37 1
    42    19    38 1
    43    19    39 1
    44    18    40 1
    45    18    41 1
    46    21    42 1
    47    28    43 1
    48    24    44 1
    49    24    45 1
    50    27    46 1
@<TRIPOS>SUBSTRUCTURE
     1 G3R         1 TEMP              0 ****  ****    0 ROOT
