@<TRIPOS>MOLECULE
G3V
   54    56     1     0     0
SMALL
bcc


@<TRIPOS>ATOM
      1 C02          0.0000     0.0000     0.0000 ca         1 G3V       0.786900
      2 C04          2.0090     0.0000     1.1470 ca         1 G3V       0.555000
      3 C06          3.9760    -0.0010     2.3210 ca         1 G3V       0.346900
      4 C07          3.2690    -0.0010     3.5220 ca         1 G3V       0.191300
      5 C08          4.0180    -0.0020     4.8310 c3         1 G3V       0.141500
      6 C10          5.3220     2.1720     4.9280 c3         1 G3V       0.414600
      7 C12          3.1810     1.9230     6.1400 ca         1 G3V       0.055600
      8 C13          3.3150     3.2300     6.5980 ca         1 G3V      -0.195000
      9 C14          2.3520     3.7750     7.4160 ca         1 G3V      -0.030500
     10 C15          1.2380     3.0160     7.7850 ca         1 G3V      -0.144600
     11 C16          1.1070     1.7020     7.3240 ca         1 G3V      -0.030500
     12 C17          2.0710     1.1650     6.5010 ca         1 G3V      -0.195000
     13 C18          0.2070     3.5950     8.6670 c          1 G3V       0.571700
     14 C21         -0.6890     5.4370     9.9870 c3         1 G3V      -0.113300
     15 C22         -0.0720     6.5560    10.8280 c3         1 G3V      -0.012400
     16 C23          0.9800     5.9640    11.7700 c3         1 G3V      -0.143400
     17 C24          1.5890     7.0670    12.5980 c          1 G3V       0.983600
     18 C27         -1.8080     5.9980     9.1490 c          1 G3V       0.987600
     19 C31          1.2940    -0.0020     2.3700 ca         1 G3V       0.038000
     20 C32         -0.1690     0.0050     2.3080 ca         1 G3V       0.504900
     21 N01         -0.6550    -0.0000    -1.2180 nv         1 G3V      -0.643500
     22 N03          1.3180     0.0000     0.0000 nb         1 G3V      -0.691000
     23 N05          3.3450    -0.0010     1.1660 nb         1 G3V      -0.555000
     24 N09          4.1560     1.3740     5.3140 nh         1 G3V      -0.388000
     25 N20          0.3350     4.8600     9.1120 ns         1 G3V      -0.089900
     26 N30          1.9520    -0.0010     3.5260 nb         1 G3V      -0.471000
     27 N33         -0.9310     0.0050     3.4550 nv         1 G3V      -0.424500
     28 N34         -0.7340     0.0050     1.1090 nb         1 G3V      -0.760000
     29 O11          4.9380     3.1330     3.9430 oh         1 G3V      -0.599800
     30 O19         -0.7580     2.9310     8.9910 o          1 G3V      -0.692100
     31 O25          1.2190     8.2080    12.4500 o          1 G3V      -0.920800
     32 O26          2.5400     6.7810    13.5000 o          1 G3V      -0.920800
     33 O28         -2.8640     6.5790     9.7410 o          1 G3V      -0.909300
     34 O29         -1.7560     5.9250     7.9440 o          1 G3V      -0.909300
     35 H1           5.0590    -0.0050     2.3380 h4         1 G3V      -0.019900
     36 H2           3.4710    -0.5880     5.5600 h1         1 G3V       0.029200
     37 H3           5.0000    -0.4340     4.6840 h1         1 G3V       0.029200
     38 H4           6.0860     1.5210     4.5190 h2         1 G3V      -0.010300
     39 H5           5.7130     2.6840     5.7990 h2         1 G3V      -0.010300
     40 H6           4.1800     3.8170     6.3140 ha         1 G3V       0.108000
     41 H7           2.4560     4.7930     7.7730 ha         1 G3V       0.119000
     42 H8           0.2440     1.1120     7.6070 ha         1 G3V       0.119000
     43 H9           1.9700     0.1470     6.1420 ha         1 G3V       0.108000
     44 H10         -1.0800     4.6670    10.6420 h1         1 G3V       0.052700
     45 H11          0.3970     7.2820    10.1750 hc         1 G3V       0.036700
     46 H12         -0.8470     7.0400    11.4100 hc         1 G3V       0.036700
     47 H13          0.5110     5.2390    12.4240 hc         1 G3V      -0.000800
     48 H14          1.7540     5.4790    11.1880 hc         1 G3V      -0.000800
     49 H15         -0.9660    -0.8630    -1.6180 hn         1 G3V       0.275300
     50 H16         -0.8180     0.8630    -1.6980 hn         1 G3V       0.275300
     51 H17          1.1140     5.4170     8.8210 hn         1 G3V       0.158500
     52 H18         -0.4860    -0.0060     4.3520 hn         1 G3V       0.285800
     53 H19         -1.9300     0.0090     3.3920 hn         1 G3V       0.285800
     54 H20          5.6900     3.6420     3.6890 ho         1 G3V       0.388000
@<TRIPOS>BOND
     1     1    21 1   
     2     1    22 ar  
     3     1    28 ar  
     4     2    19 ar  
     5     2    22 ar  
     6     2    23 ar  
     7     3     4 ar  
     8     3    23 ar  
     9     3    35 1   
    10     4     5 1   
    11     4    26 ar  
    12     5    24 1   
    13     5    36 1   
    14     5    37 1   
    15     6    24 1   
    16     6    29 1   
    17     6    38 1   
    18     6    39 1   
    19     7     8 ar  
    20     7    12 ar  
    21     7    24 1   
    22     8     9 ar  
    23     8    40 1   
    24     9    10 ar  
    25     9    41 1   
    26    10    11 ar  
    27    10    13 1   
    28    11    12 ar  
    29    11    42 1   
    30    12    43 1   
    31    13    25 1   
    32    13    30 2   
    33    14    15 1   
    34    14    18 1   
    35    14    25 1   
    36    14    44 1   
    37    15    16 1   
    38    15    45 1   
    39    15    46 1   
    40    16    17 1   
    41    16    47 1   
    42    16    48 1   
    43    17    31 1   
    44    17    32 1   
    45    18    33 1   
    46    18    34 1   
    47    19    20 ar  
    48    19    26 ar  
    49    20    27 1   
    50    20    28 ar  
    51    21    49 1   
    52    21    50 1   
    53    25    51 1   
    54    27    52 1   
    55    27    53 1   
    56    29    54 1   
@<TRIPOS>SUBSTRUCTURE
     1 G3V         1 TEMP              0 ****  ****    0 ROOT
