@<TRIPOS>MOLECULE
molecule
   63    67     1     0     0
SMALL
bcc


@<TRIPOS>ATOM
      1 C1           0.0000     0.0000     0.0000 c2         1 G3X      -0.123200
      2 C2           1.2910     0.0000     0.0000 c2         1 G3X      -0.189200
      3 C3           2.1200     0.0000     1.2450 c3         1 G3X       0.187300
      4 C4           1.3250     0.4600     2.4500 c3         1 G3X      -0.081400
      5 O5          -0.0630    -1.5160     2.8030 os         1 G3X      -0.275900
      6 C6          -1.6030    -3.3930     2.3810 ca         1 G3X       0.114100
      7 C7          -2.6620    -3.7950     1.5770 ca         1 G3X      -0.180000
      8 C8          -3.2260    -2.9490     0.6450 ca         1 G3X      -0.136000
      9 C9          -3.5930    -0.7740    -0.4480 c3         1 G3X       0.235100
     10 N10         -3.7780     0.5720     0.0530 n3         1 G3X      -0.753600
     11 C11         -2.5940     1.4160     0.0610 c3         1 G3X       0.184800
     12 C12         -1.7240     1.2580     1.2750 c3         1 G3X      -0.063400
     13 C13         -1.1160    -2.0940     2.1860 ca         1 G3X       0.113100
     14 C14         -1.7140    -1.2450     1.2350 ca         1 G3X      -0.109300
     15 C15         -2.7800    -1.6300     0.4780 ca         1 G3X      -0.053300
     16 C16         -1.6350    -5.5270     3.4300 c3         1 G3X       0.129700
     17 O17         -1.0630    -4.2230     3.3140 os         1 G3X      -0.311900
     18 O18          2.6040    -1.3230     1.4830 oh         1 G3X      -0.582800
     19 C19         -4.8960     1.2390    -0.6280 c3         1 G3X       0.174800
     20 C20         -6.2050     0.5340    -0.2680 c3         1 G3X      -0.085400
     21 C21         -7.3690     1.2290    -0.9780 c3         1 G3X       0.161800
     22 N22         -8.6270     0.5530    -0.6340 n3         1 G3X      -0.727600
     23 C23         -8.6520    -0.8150    -1.1670 c3         1 G3X       0.163800
     24 C24         -9.9060    -1.5350    -0.6680 c3         1 G3X      -0.078400
     25 C25        -11.1470    -0.7650    -1.1270 c3         1 G3X      -0.082400
     26 C26        -11.0730     0.6690    -0.5980 c3         1 G3X      -0.078400
     27 C27         -9.7850     1.3260    -1.0990 c3         1 G3X       0.163800
     28 C41         -0.0640    -0.1130     2.5170 c3         1 G3X       0.157100
     29 C42         -0.8630     0.0110     1.2170 c3         1 G3X      -0.000500
     30 H1          -0.4970    -0.0080    -0.9620 ha         1 G3X       0.124000
     31 H2           1.7810    -0.3020    -0.9180 ha         1 G3X       0.127000
     32 H3           2.9610     0.6680     1.1050 h1         1 G3X       0.032700
     33 H4           1.8600     0.1680     3.3460 hc         1 G3X       0.063200
     34 H4A          1.2510     1.5400     2.4210 hc         1 G3X       0.063200
     35 H7          -3.0540    -4.7990     1.6840 ha         1 G3X       0.134000
     36 H8          -4.0500    -3.3070     0.0400 ha         1 G3X       0.126000
     37 H9          -4.5660    -1.2330    -0.5810 h1         1 G3X       0.039200
     38 H9A         -3.0910    -0.7230    -1.4070 h1         1 G3X       0.039200
     39 H11         -2.9120     2.4500     0.0020 h1         1 G3X       0.030700
     40 H11A        -2.0020     1.1830    -0.8150 h1         1 G3X       0.030700
     41 H12         -1.0780     2.1230     1.3560 hc         1 G3X       0.055200
     42 H12A        -2.3570     1.2030     2.1530 hc         1 G3X       0.055200
     43 H16         -1.1150    -6.0810     4.2030 h1         1 G3X       0.039033
     44 H16A        -1.5400    -6.0480     2.4860 h1         1 G3X       0.039033
     45 H16B        -2.6830    -5.4400     3.6910 h1         1 G3X       0.039033
     46 HO18         3.5320    -1.3530     1.3170 ho         1 G3X       0.394000
     47 H19         -4.7440     1.1950    -1.6990 h1         1 G3X       0.031200
     48 H19A        -4.9440     2.2740    -0.3120 h1         1 G3X       0.031200
     49 H20         -6.3570     0.5790     0.8030 hc         1 G3X       0.058700
     50 H20A        -6.1560    -0.5010    -0.5830 hc         1 G3X       0.058700
     51 H21         -7.4180     2.2650    -0.6640 h1         1 G3X       0.030700
     52 H21A        -7.2170     1.1850    -2.0500 h1         1 G3X       0.030700
     53 H23         -7.7720    -1.3490    -0.8300 h1         1 G3X       0.032200
     54 H23A        -8.6660    -0.7780    -2.2500 h1         1 G3X       0.032200
     55 H24         -9.9320    -2.5380    -1.0780 hc         1 G3X       0.048200
     56 H24A        -9.8890    -1.5810     0.4140 hc         1 G3X       0.048200
     57 H25        -11.1830    -0.7490    -2.2090 hc         1 G3X       0.039700
     58 H25A       -12.0360    -1.2480    -0.7370 hc         1 G3X       0.039700
     59 H26        -11.0720     0.6550     0.4860 hc         1 G3X       0.048200
     60 H26A       -11.9270     1.2310    -0.9570 hc         1 G3X       0.048200
     61 H27         -9.7220     2.3360    -0.7130 h1         1 G3X       0.032200
     62 H27A        -9.7900     1.3480    -2.1830 h1         1 G3X       0.032200
     63 H41         -0.6070     0.3980     3.3030 h1         1 G3X       0.054700
@<TRIPOS>BOND
     1     2     1 2
     2     1    29 1
     3     1    30 1
     4     3     2 1
     5     2    31 1
     6    18     3 1
     7     3     4 1
     8     3    32 1
     9     4    28 1
    10     4    33 1
    11     4    34 1
    12     5    28 1
    13     5    13 1
    14    17     6 1
    15    13     6 ar
    16     6     7 ar
    17     7     8 ar
    18     7    35 1
    19    15     8 ar
    20     8    36 1
    21    15     9 1
    22     9    10 1
    23     9    37 1
    24     9    38 1
    25    11    10 1
    26    10    19 1
    27    12    11 1
    28    11    39 1
    29    11    40 1
    30    29    12 1
    31    12    41 1
    32    12    42 1
    33    13    14 ar
    34    29    14 1
    35    14    15 ar
    36    16    17 1
    37    16    43 1
    38    16    44 1
    39    16    45 1
    40    18    46 1
    41    19    20 1
    42    19    47 1
    43    19    48 1
    44    20    21 1
    45    20    49 1
    46    20    50 1
    47    22    21 1
    48    21    51 1
    49    21    52 1
    50    22    27 1
    51    22    23 1
    52    24    23 1
    53    23    53 1
    54    23    54 1
    55    24    25 1
    56    24    55 1
    57    24    56 1
    58    26    25 1
    59    25    57 1
    60    25    58 1
    61    26    27 1
    62    26    59 1
    63    26    60 1
    64    27    61 1
    65    27    62 1
    66    28    29 1
    67    28    63 1
@<TRIPOS>SUBSTRUCTURE
     1 G3X         1 TEMP              0 ****  ****    0 ROOT
