@<TRIPOS>MOLECULE
G3Z
   49    52     1     0     0
SMALL
bcc


@<TRIPOS>ATOM
      1 O1           0.0000     0.0000     0.0000 o          1 G3Z      -0.636100
      2 C2           1.2150     0.0000     0.0000 c          1 G3Z       0.552100
      3 N4           1.8910     0.0000     1.1670 ns         1 G3Z      -0.227900
      4 C6           1.1590     0.0010     2.4350 c3         1 G3Z       0.067000
      5 C9           2.1530     0.0010     3.5980 c3         1 G3Z      -0.009100
      6 N3           1.8880    -0.0050    -1.1680 ns         1 G3Z      -0.129400
      7 C5           1.1940    -0.1100    -2.3720 ca         1 G3Z       0.397200
      8 C8           1.9030    -0.2270    -3.5520 ca         1 G3Z      -0.311300
      9 C11          1.1900    -0.3310    -4.7550 ca         1 G3Z       0.080000
     10 C13          1.8390    -0.4530    -6.0030 cp         1 G3Z      -0.117000
     11 C15          3.3170    -0.4750    -6.0760 cp         1 G3Z       0.024000
     12 C20          3.9870    -1.4730    -6.7940 ca         1 G3Z      -0.226800
     13 C23          5.3650    -1.4560    -6.8350 ca         1 G3Z       0.404200
     14 N26          6.0510    -0.5180    -6.2100 nb         1 G3Z      -0.591000
     15 C22          5.4590     0.4400    -5.5210 ca         1 G3Z       0.404200
     16 C19          4.0840     0.5030    -5.4330 ca         1 G3Z      -0.226800
     17 C16          1.0820    -0.5520    -7.1600 ca         1 G3Z      -0.002000
     18 C18         -0.3040    -0.5310    -7.1060 ca         1 G3Z      -0.240000
     19 C14         -0.9680    -0.4130    -5.8990 ca         1 G3Z       0.082600
     20 C12         -0.2280    -0.3110    -4.7010 ca         1 G3Z      -0.236300
     21 C10         -0.8550    -0.1900    -3.4550 ca         1 G3Z       0.451200
     22 N7          -0.1360    -0.1000    -2.3600 nb         1 G3Z      -0.549000
     23 N17         -2.3570    -0.3950    -5.8650 nu         1 G3Z      -0.202000
     24 C21         -3.0870    -0.6580    -7.0280 ca         1 G3Z      -0.116700
     25 C25         -2.7030    -1.6850    -7.8860 ca         1 G3Z      -0.111000
     26 C28         -3.4590    -1.9070    -9.0250 ca         1 G3Z      -0.195300
     27 C29         -4.5610    -1.1090    -9.2710 ca         1 G3Z       0.382200
     28 N27         -4.8980    -0.1440    -8.4380 nb         1 G3Z      -0.555000
     29 C24         -4.2110     0.0980    -7.3400 ca         1 G3Z       0.373200
     30 H1           2.8910     0.0360     1.1660 hn         1 G3Z       0.166500
     31 H2           0.5360    -0.8830     2.4930 h1         1 G3Z       0.024700
     32 H3           0.5360     0.8860     2.4930 h1         1 G3Z       0.024700
     33 H4           2.7710     0.8890     3.5450 hc         1 G3Z       0.007367
     34 H5           2.7810    -0.8790     3.5360 hc         1 G3Z       0.007367
     35 H6           1.6120    -0.0070     4.5360 hc         1 G3Z       0.007367
     36 H7           2.8850     0.0880    -1.1710 hn         1 G3Z       0.164500
     37 H8           2.9600    -0.4620    -3.5270 ha         1 G3Z       0.134000
     38 H9           3.4310    -2.2470    -7.3100 ha         1 G3Z       0.121500
     39 H10          5.8930    -2.2240    -7.3890 h4         1 G3Z      -0.021400
     40 H11          6.0610     1.1910    -5.0250 h4         1 G3Z      -0.021400
     41 H12          3.6050     1.2920    -4.8650 ha         1 G3Z       0.121500
     42 H13          1.5780    -0.6450    -8.1180 ha         1 G3Z       0.105000
     43 H14         -0.8750    -0.6100    -8.0230 ha         1 G3Z       0.136000
     44 H15         -1.9360    -0.1770    -3.3930 h4         1 G3Z      -0.022900
     45 H16         -2.8340    -0.1640    -5.0160 hn         1 G3Z       0.295800
     46 H17         -1.8350    -2.2950    -7.6690 ha         1 G3Z       0.133000
     47 H18         -3.1900    -2.6970    -9.7160 ha         1 G3Z       0.114000
     48 H19         -5.1540    -1.2770   -10.1620 h4         1 G3Z      -0.017900
     49 H20         -4.5180     0.9000    -6.6800 h4         1 G3Z      -0.014900
@<TRIPOS>BOND
     1     1     2 2   
     2     2     3 1   
     3     2     6 1   
     4     3     4 1   
     5     3    30 1   
     6     4     5 1   
     7     4    31 1   
     8     4    32 1   
     9     5    33 1   
    10     5    34 1   
    11     5    35 1   
    12     6     7 1   
    13     6    36 1   
    14     7     8 ar  
    15     7    22 ar  
    16     8     9 ar  
    17     8    37 1   
    18     9    10 ar  
    19     9    20 ar  
    20    10    11 1   
    21    10    17 ar  
    22    11    12 ar  
    23    11    16 ar  
    24    12    13 ar  
    25    12    38 1   
    26    13    14 ar  
    27    13    39 1   
    28    14    15 ar  
    29    15    16 ar  
    30    15    40 1   
    31    16    41 1   
    32    17    18 ar  
    33    17    42 1   
    34    18    19 ar  
    35    18    43 1   
    36    19    20 ar  
    37    19    23 1   
    38    20    21 ar  
    39    21    22 ar  
    40    21    44 1   
    41    23    24 1   
    42    23    45 1   
    43    24    25 ar  
    44    24    29 ar  
    45    25    26 ar  
    46    25    46 1   
    47    26    27 ar  
    48    26    47 1   
    49    27    28 ar  
    50    27    48 1   
    51    28    29 ar  
    52    29    49 1   
@<TRIPOS>SUBSTRUCTURE
     1 G3Z         1 TEMP              0 ****  ****    0 ROOT
