@<TRIPOS>MOLECULE
G43
   81    84     1     0     0
SMALL
bcc


@<TRIPOS>ATOM
      1 O8           0.0000     0.0000     0.0000 o          1 G43      -0.587300
      2 S            1.4210     0.0000     0.0000 sy         1 G43       1.051200
      3 O7           2.1980     0.0000     1.1890 o          1 G43      -0.587300
      4 C18          1.9190    -1.4180    -0.9200 ca         1 G43      -0.210500
      5 C23          3.1680    -1.9720    -0.7100 ca         1 G43       0.042500
      6 C22          3.5610    -3.0840    -1.4300 ca         1 G43      -0.210500
      7 C21          2.7010    -3.6440    -2.3640 ca         1 G43       0.202100
      8 C20          1.4480    -3.0850    -2.5720 ca         1 G43      -0.210500
      9 C19          1.0580    -1.9770    -1.8460 ca         1 G43       0.042500
     10 O1           3.0880    -4.7340    -3.0780 os         1 G43      -0.303900
     11 C26          4.3900    -5.2550    -2.8110 c3         1 G43       0.244700
     12 N2           1.8880     1.3340    -0.8640 n3         1 G43      -0.518500
     13 C16          0.9780     1.9240    -1.8490 c3         1 G43       0.231800
     14 C17          0.1680     3.0430    -1.1910 c3         1 G43      -0.080700
     15 C25          1.1070     4.1790    -0.7840 c3         1 G43       0.004900
     16 C24         -0.8730     3.5680    -2.1810 c3         1 G43       0.004900
     17 C15          3.2100     1.9240    -0.6420 c3         1 G43       0.189800
     18 C7           4.2020     1.3480    -1.6550 c3         1 G43       0.144100
     19 O6           3.8240     1.7500    -2.9730 oh         1 G43      -0.580800
     20 C6           5.6070     1.8690    -1.3450 c3         1 G43       0.010700
     21 C8           5.6470     3.3840    -1.5560 c3         1 G43       0.016900
     22 C9           6.9940     3.9130    -1.1350 ca         1 G43      -0.112300
     23 N1           6.5740     1.2250    -2.2390 ns         1 G43      -0.168900
     24 C4           7.8640     1.1130    -1.8670 c          1 G43       0.671100
     25 O5           8.2260     1.5450    -0.7890 o          1 G43      -0.647000
     26 O4           8.7530     0.5220    -2.6880 os         1 G43      -0.405900
     27 C5          10.1250     0.4350    -2.2210 c3         1 G43       0.162100
     28 C50         11.1030     0.4630    -3.4150 c3         1 G43      -0.120700
     29 C27         11.8250    -0.9120    -3.3420 c3         1 G43       0.387900
     30 O50         10.9290    -1.7570    -2.5910 os         1 G43      -0.418600
     31 C3          10.3830    -0.9330    -1.5520 c3         1 G43       0.193400
     32 O9          11.8730    -1.3720    -4.7090 os         1 G43      -0.390600
     33 C2          10.5970    -1.0180    -5.2810 c3         1 G43       0.209400
     34 C1          10.2900     0.4080    -4.7260 c3         1 G43      -0.067400
     35 C11          7.1990     4.3170     0.1720 ca         1 G43      -0.034000
     36 C13          8.4320     4.8030     0.5610 ca         1 G43      -0.190000
     37 C14          9.4650     4.8870    -0.3590 ca         1 G43       0.158100
     38 O60         10.6790     5.3650     0.0220 os         1 G43      -0.302900
     39 C60         10.8210     5.7640     1.3870 c3         1 G43       0.244700
     40 C12          9.2580     4.4810    -1.6710 ca         1 G43      -0.066600
     41 C10          8.0240     3.9900    -2.0540 ca         1 G43      -0.064000
     42 Cl1         10.5490     4.5860    -2.8270 cl         1 G43      -0.024400
     43 H1           3.8390    -1.5350     0.0190 ha         1 G43       0.122500
     44 H2           4.5400    -3.5190    -1.2650 ha         1 G43       0.126500
     45 H3           0.7740    -3.5210    -3.3000 ha         1 G43       0.126500
     46 H4           0.0790    -1.5400    -2.0080 ha         1 G43       0.122500
     47 H5           4.4620    -5.5270    -1.7640 h1         1 G43       0.001367
     48 H6           4.5600    -6.1320    -3.4240 h1         1 G43       0.001367
     49 H7           5.1340    -4.5030    -3.0410 h1         1 G43       0.001367
     50 H8           1.5520     2.3300    -2.6740 h1         1 G43       0.027700
     51 H9           0.3040     1.1600    -2.2200 h1         1 G43       0.027700
     52 H10         -0.3330     2.6560    -0.3120 hc         1 G43       0.048700
     53 H11          0.5300     5.0800    -0.6140 hc         1 G43       0.004367
     54 H12          1.8260     4.3550    -1.5750 hc         1 G43       0.004367
     55 H13          1.6290     3.9080     0.1250 hc         1 G43       0.004367
     56 H14         -1.5240     2.7580    -2.4850 hc         1 G43       0.004367
     57 H15         -0.3710     3.9740    -3.0510 hc         1 G43       0.004367
     58 H16         -1.4600     4.3460    -1.7090 hc         1 G43       0.004367
     59 H17          3.1510     2.9990    -0.7650 h1         1 G43       0.055200
     60 H18          3.5450     1.6940     0.3620 h1         1 G43       0.055200
     61 H19          4.1960     0.2670    -1.5920 h1         1 G43       0.011700
     62 H20          3.8520     1.0040    -3.5490 ho         1 G43       0.390000
     63 H21          5.8590     1.6410    -0.3170 h1         1 G43       0.069700
     64 H22          5.4830     3.6070    -2.6040 hc         1 G43       0.034200
     65 H23          4.8720     3.8520    -0.9610 hc         1 G43       0.034200
     66 H24          6.2720     0.8540    -3.1190 hn         1 G43       0.172500
     67 H25         10.3480     1.2400    -1.5320 h1         1 G43       0.059700
     68 H26         11.7910     1.3000    -3.3780 hc         1 G43       0.057700
     69 H27         12.8080    -0.8410    -2.8920 h2         1 G43       0.040700
     70 H28         11.0960    -0.8260    -0.7430 h1         1 G43       0.021200
     71 H29          9.4530    -1.3540    -1.1890 h1         1 G43       0.021200
     72 H30         10.6640    -0.9940    -6.3620 h1         1 G43       0.013700
     73 H31          9.8340    -1.7180    -4.9600 h1         1 G43       0.013700
     74 H32         10.6330     1.1680    -5.4180 hc         1 G43       0.038200
     75 H33          9.2320     0.5180    -4.5220 hc         1 G43       0.038200
     76 H34          6.3910     4.2510     0.8920 ha         1 G43       0.102000
     77 H35          8.5910     5.1190     1.5850 ha         1 G43       0.121000
     78 H36         10.1130     6.5530     1.6080 h1         1 G43      -0.001633
     79 H37         11.8280     6.1250     1.5550 h1         1 G43      -0.001633
     80 H38         10.6290     4.9150     2.0330 h1         1 G43      -0.001633
     81 H39          7.8620     3.6730    -3.0770 ha         1 G43       0.111000
@<TRIPOS>BOND
     1     1     2 2   
     2     2     3 2   
     3     2     4 1   
     4     2    12 1   
     5     4     5 ar  
     6     4     9 ar  
     7     5     6 ar  
     8     5    43 1   
     9     6     7 ar  
    10     6    44 1   
    11     7     8 ar  
    12     7    10 1   
    13     8     9 ar  
    14     8    45 1   
    15     9    46 1   
    16    10    11 1   
    17    11    47 1   
    18    11    48 1   
    19    11    49 1   
    20    12    13 1   
    21    12    17 1   
    22    13    14 1   
    23    13    50 1   
    24    13    51 1   
    25    14    15 1   
    26    14    16 1   
    27    14    52 1   
    28    15    53 1   
    29    15    54 1   
    30    15    55 1   
    31    16    56 1   
    32    16    57 1   
    33    16    58 1   
    34    17    18 1   
    35    17    59 1   
    36    17    60 1   
    37    18    19 1   
    38    18    20 1   
    39    18    61 1   
    40    19    62 1   
    41    20    21 1   
    42    20    23 1   
    43    20    63 1   
    44    21    22 1   
    45    21    64 1   
    46    21    65 1   
    47    22    35 ar  
    48    22    41 ar  
    49    23    24 1   
    50    23    66 1   
    51    24    25 2   
    52    24    26 1   
    53    26    27 1   
    54    27    28 1   
    55    27    31 1   
    56    27    67 1   
    57    28    29 1   
    58    28    34 1   
    59    28    68 1   
    60    29    30 1   
    61    29    32 1   
    62    29    69 1   
    63    30    31 1   
    64    31    70 1   
    65    31    71 1   
    66    32    33 1   
    67    33    34 1   
    68    33    72 1   
    69    33    73 1   
    70    34    74 1   
    71    34    75 1   
    72    35    36 ar  
    73    35    76 1   
    74    36    37 ar  
    75    36    77 1   
    76    37    38 1   
    77    37    40 ar  
    78    38    39 1   
    79    39    78 1   
    80    39    79 1   
    81    39    80 1   
    82    40    41 ar  
    83    40    42 1   
    84    41    81 1   
@<TRIPOS>SUBSTRUCTURE
     1 G43         1 TEMP              0 ****  ****    0 ROOT
