@<TRIPOS>MOLECULE
molecule
   81    84     1     0     0
SMALL
bcc


@<TRIPOS>ATOM
      1 O8           0.0000     0.0000     0.0000 o          1 G43      -0.635800
      2 S            1.4210     0.0000     0.0000 sy         1 G43       1.424200
      3 O7           2.1980     0.0000     1.1890 o          1 G43      -0.635800
      4 C18          1.9190    -1.4180    -0.9200 ca         1 G43      -0.360500
      5 C23          3.1680    -1.9720    -0.7100 ca         1 G43       0.003500
      6 C22          3.5610    -3.0840    -1.4300 ca         1 G43      -0.214500
      7 C21          2.7010    -3.6440    -2.3640 ca         1 G43       0.193100
      8 C20          1.4480    -3.0850    -2.5720 ca         1 G43      -0.214500
      9 C19          1.0580    -1.9770    -1.8460 ca         1 G43       0.003500
     10 O1           3.0880    -4.7340    -3.0780 os         1 G43      -0.322900
     11 C26          4.3900    -5.2550    -2.8110 c3         1 G43       0.125700
     12 N2           1.8880     1.3340    -0.8640 n3         1 G43      -0.811500
     13 C16          0.9780     1.9240    -1.8490 c3         1 G43       0.239800
     14 C17          0.1680     3.0430    -1.1910 c3         1 G43      -0.095700
     15 C25          1.1070     4.1790    -0.7840 c3         1 G43      -0.088100
     16 C24         -0.8730     3.5680    -2.1810 c3         1 G43      -0.088100
     17 C15          3.2100     1.9240    -0.6420 c3         1 G43       0.220800
     18 C7           4.2020     1.3480    -1.6550 c3         1 G43       0.105100
     19 O6           3.8240     1.7500    -2.9730 oh         1 G43      -0.600800
     20 C6           5.6070     1.8690    -1.3450 c3         1 G43       0.121700
     21 C8           5.6470     3.3840    -1.5560 c3         1 G43      -0.042100
     22 C9           6.9940     3.9130    -1.1350 ca         1 G43      -0.101300
     23 N1           6.5740     1.2250    -2.2390 ns         1 G43      -0.570900
     24 C4           7.8640     1.1130    -1.8670 c          1 G43       0.742100
     25 O5           8.2260     1.5450    -0.7890 o          1 G43      -0.601000
     26 O4           8.7530     0.5220    -2.6880 os         1 G43      -0.428900
     27 C5          10.1250     0.4350    -2.2210 c3         1 G43       0.132100
     28 C50         11.1030     0.4630    -3.4150 c3         1 G43      -0.133700
     29 C27         11.8250    -0.9120    -3.3420 c3         1 G43       0.320900
     30 O50         10.9290    -1.7570    -2.5910 os         1 G43      -0.423600
     31 C3          10.3830    -0.9330    -1.5520 c3         1 G43       0.115400
     32 O9          11.8730    -1.3720    -4.7090 os         1 G43      -0.390600
     33 C2          10.5970    -1.0180    -5.2810 c3         1 G43       0.123400
     34 C1          10.2900     0.4080    -4.7260 c3         1 G43      -0.109400
     35 C11          7.1990     4.3170     0.1720 ca         1 G43      -0.071000
     36 C13          8.4320     4.8030     0.5610 ca         1 G43      -0.202000
     37 C14          9.4650     4.8870    -0.3590 ca         1 G43       0.150100
     38 O60         10.6790     5.3650     0.0220 os         1 G43      -0.319900
     39 C60         10.8210     5.7640     1.3870 c3         1 G43       0.128700
     40 C12          9.2580     4.4810    -1.6710 ca         1 G43       0.001400
     41 C10          8.0240     3.9900    -2.0540 ca         1 G43      -0.081000
     42 Cl1         10.5490     4.5860    -2.8270 cl         1 G43      -0.106400
     43 H1           3.8390    -1.5350     0.0190 ha         1 G43       0.152500
     44 H2           4.5400    -3.5190    -1.2650 ha         1 G43       0.148000
     45 H3           0.7740    -3.5210    -3.3000 ha         1 G43       0.148000
     46 H4           0.0790    -1.5400    -2.0080 ha         1 G43       0.152500
     47 H5           4.4620    -5.5270    -1.7640 h1         1 G43       0.047367
     48 H6           4.5600    -6.1320    -3.4240 h1         1 G43       0.047367
     49 H7           5.1340    -4.5030    -3.0410 h1         1 G43       0.047367
     50 H8           1.5520     2.3300    -2.6740 h1         1 G43       0.060200
     51 H9           0.3040     1.1600    -2.2200 h1         1 G43       0.060200
     52 H10         -0.3330     2.6560    -0.3120 hc         1 G43       0.068700
     53 H11          0.5300     5.0800    -0.6140 hc         1 G43       0.036033
     54 H12          1.8260     4.3550    -1.5750 hc         1 G43       0.036033
     55 H13          1.6290     3.9080     0.1250 hc         1 G43       0.036033
     56 H14         -1.5240     2.7580    -2.4850 hc         1 G43       0.036033
     57 H15         -0.3710     3.9740    -3.0510 hc         1 G43       0.036033
     58 H16         -1.4600     4.3460    -1.7090 hc         1 G43       0.036033
     59 H17          3.1510     2.9990    -0.7650 h1         1 G43       0.082700
     60 H18          3.5450     1.6940     0.3620 h1         1 G43       0.082700
     61 H19          4.1960     0.2670    -1.5920 h1         1 G43       0.044700
     62 H20          3.8520     1.0040    -3.5490 ho         1 G43       0.404000
     63 H21          5.8590     1.6410    -0.3170 h1         1 G43       0.090700
     64 H22          5.4830     3.6070    -2.6040 hc         1 G43       0.063200
     65 H23          4.8720     3.8520    -0.9610 hc         1 G43       0.063200
     66 H24          6.2720     0.8540    -3.1190 hn         1 G43       0.320500
     67 H25         10.3480     1.2400    -1.5320 h1         1 G43       0.094700
     68 H26         11.7910     1.3000    -3.3780 hc         1 G43       0.088700
     69 H27         12.8080    -0.8410    -2.8920 h2         1 G43       0.094700
     70 H28         11.0960    -0.8260    -0.7430 h1         1 G43       0.064700
     71 H29          9.4530    -1.3540    -1.1890 h1         1 G43       0.064700
     72 H30         10.6640    -0.9940    -6.3620 h1         1 G43       0.057200
     73 H31          9.8340    -1.7180    -4.9600 h1         1 G43       0.057200
     74 H32         10.6330     1.1680    -5.4180 hc         1 G43       0.068200
     75 H33          9.2320     0.5180    -4.5220 hc         1 G43       0.068200
     76 H34          6.3910     4.2510     0.8920 ha         1 G43       0.130000
     77 H35          8.5910     5.1190     1.5850 ha         1 G43       0.139000
     78 H36         10.1130     6.5530     1.6080 h1         1 G43       0.042700
     79 H37         11.8280     6.1250     1.5550 h1         1 G43       0.042700
     80 H38         10.6290     4.9150     2.0330 h1         1 G43       0.042700
     81 H39          7.8620     3.6730    -3.0770 ha         1 G43       0.143000
@<TRIPOS>BOND
     1    11    10 1
     2    10     7 1
     3     7     8 ar
     4     7     6 ar
     5     8     9 ar
     6    15    14 1
     7     6     5 ar
     8    19    18 1
     9     9     4 ar
    10    17    18 1
    11    17    12 1
    12    13    14 1
    13    13    12 1
    14    14    16 1
    15     5     4 ar
    16    18    20 1
    17     4     2 1
    18    12     2 1
    19     2     3 2
    20     2     1 2
    21    20    21 1
    22    20    23 1
    23    21    22 1
    24    23    24 1
    25    22    41 ar
    26    22    35 ar
    27    24    26 1
    28    24    25 2
    29    41    40 ar
    30    26    27 1
    31    35    36 ar
    32    30    31 1
    33    30    29 1
    34    31    27 1
    35    27    28 1
    36    40    42 1
    37    40    37 ar
    38    32    33 1
    39    32    29 1
    40    33    34 1
    41    29    28 1
    42    36    37 ar
    43    34    28 1
    44    37    38 1
    45    38    39 1
    46     5    43 1
    47     6    44 1
    48     8    45 1
    49     9    46 1
    50    11    47 1
    51    11    48 1
    52    11    49 1
    53    13    50 1
    54    13    51 1
    55    14    52 1
    56    15    53 1
    57    15    54 1
    58    15    55 1
    59    16    56 1
    60    16    57 1
    61    16    58 1
    62    17    59 1
    63    17    60 1
    64    18    61 1
    65    19    62 1
    66    20    63 1
    67    21    64 1
    68    21    65 1
    69    23    66 1
    70    27    67 1
    71    28    68 1
    72    29    69 1
    73    31    70 1
    74    31    71 1
    75    33    72 1
    76    33    73 1
    77    34    74 1
    78    34    75 1
    79    35    76 1
    80    36    77 1
    81    39    78 1
    82    39    79 1
    83    39    80 1
    84    41    81 1
@<TRIPOS>SUBSTRUCTURE
     1 G43         1 TEMP              0 ****  ****    0 ROOT
