@<TRIPOS>MOLECULE
molecule
   47    49     1     0     0
SMALL
bcc


@<TRIPOS>ATOM
      1 C1           0.0000     0.0000     0.0000 c3         1 G44      -0.048800
      2 C2           1.5070     0.0000     0.0000 ca         1 G44      -0.095300
      3 C3           2.1980     0.0000     1.1990 ca         1 G44      -0.092000
      4 C4           3.5820     0.0000     1.2080 ca         1 G44      -0.137000
      5 C5           4.2830    -0.0010     0.0200 ca         1 G44      -0.070000
      6 C6           3.5920    -0.0020    -1.1940 ca         1 G44      -0.175600
      7 C7           2.1950    -0.0080    -1.1960 ca         1 G44      -0.104000
      8 C8           4.3350    -0.0040    -2.4700 c          1 G44       0.591300
      9 O9           5.5420    -0.1420    -2.4710 o          1 G44      -0.519100
     10 C10          3.6090     0.1630    -3.7500 ca         1 G44      -0.079600
     11 C11          2.4580     0.9560    -3.8250 ca         1 G44      -0.281300
     12 C12          1.8090     1.0870    -5.0360 ca         1 G44       0.464200
     13 N13          2.2590     0.4790    -6.1170 nb         1 G44      -0.747000
     14 C14          3.3430    -0.2810    -6.0950 ca         1 G44       0.688200
     15 N15          3.7730    -0.8990    -7.2620 nu         1 G44      -0.930900
     16 C16          4.9720    -1.7410    -7.2460 c3         1 G44       0.281100
     17 C17          5.2200    -2.2880    -8.6280 ca         1 G44      -0.048300
     18 C18          4.6520    -3.4930    -9.0040 ca         1 G44      -0.097500
     19 C19          4.8760    -3.9990   -10.2690 ca         1 G44      -0.086500
     20 C20          5.6770    -3.2940   -11.1670 ca         1 G44      -0.193900
     21 C21          6.2450    -2.0800   -10.7830 ca         1 G44      -0.086500
     22 C22          6.0090    -1.5820    -9.5180 ca         1 G44      -0.097500
     23 C23          5.9210    -3.8320   -12.5260 ce         1 G44       0.542800
     24 N24          6.7120    -3.1330   -13.4110 nz         1 G44      -0.801600
     25 N25          5.3890    -4.9660   -12.8810 n2         1 G44      -0.680100
     26 C26          4.0580    -0.4620    -4.9160 ca         1 G44      -0.274300
     27 H11A        -0.3610    -0.2600     0.9880 hc         1 G44       0.046700
     28 H12A        -0.3610     0.9850    -0.2690 hc         1 G44       0.046700
     29 H13         -0.3610    -0.7260    -0.7190 hc         1 G44       0.046700
     30 H3           1.6530     0.0010     2.1350 ha         1 G44       0.138000
     31 H4           4.1160     0.0010     2.1510 ha         1 G44       0.141000
     32 H5           5.3660     0.0010     0.0290 ha         1 G44       0.152000
     33 H7           1.6530    -0.0090    -2.1340 ha         1 G44       0.145000
     34 H11          2.0800     1.4600    -2.9440 ha         1 G44       0.160000
     35 H12          0.9180     1.6990    -5.1010 h4         1 G44       0.032100
     36 HN15         3.2640    -0.7690    -8.1140 hn         1 G44       0.450800
     37 H161         4.8270    -2.5620    -6.5540 h1         1 G44       0.061700
     38 H162         5.8240    -1.1510    -6.9330 h1         1 G44       0.061700
     39 H18          4.0310    -4.0400    -8.3050 ha         1 G44       0.168000
     40 H19          4.4320    -4.9420   -10.5630 ha         1 G44       0.140000
     41 H21          6.8660    -1.5270   -11.4770 ha         1 G44       0.140000
     42 H22          6.4500    -0.6390    -9.2180 ha         1 G44       0.168000
     43 H241         7.6290    -3.0240   -13.0260 hn         1 G44       0.465467
     44 H242         6.7710    -3.6370   -14.2740 hn         1 G44       0.465467
     45 HN25         5.5530    -5.3320   -13.7990 hn         1 G44       0.434400
     46 H26          4.9440    -1.0840    -4.9000 ha         1 G44       0.148000
     47 H243         6.3200    -2.2250   -13.5640 hn         1 G44       0.465467
@<TRIPOS>BOND
     1     1     2 1
     2     1    27 1
     3     1    28 1
     4     1    29 1
     5     2     7 ar
     6     2     3 ar
     7     3     4 ar
     8     3    30 1
     9     4     5 ar
    10     4    31 1
    11     5     6 ar
    12     5    32 1
    13     6     8 1
    14     6     7 ar
    15     7    33 1
    16     8    10 1
    17     8     9 2
    18    10    11 ar
    19    10    26 ar
    20    11    12 ar
    21    11    34 1
    22    12    13 ar
    23    12    35 1
    24    13    14 ar
    25    14    15 1
    26    14    26 ar
    27    15    16 1
    28    15    36 1
    29    16    17 1
    30    16    37 1
    31    16    38 1
    32    17    22 ar
    33    17    18 ar
    34    18    19 ar
    35    18    39 1
    36    19    20 ar
    37    19    40 1
    38    20    21 ar
    39    20    23 1
    40    21    22 ar
    41    21    41 1
    42    22    42 1
    43    23    24 1
    44    23    25 2
    45    24    43 1
    46    24    44 1
    47    25    45 1
    48    26    46 1
    49    47    24 1
@<TRIPOS>SUBSTRUCTURE
     1 G44         1 TEMP              0 ****  ****    0 ROOT
