@<TRIPOS>MOLECULE
G45
   60    63     1     0     0
SMALL
bcc


@<TRIPOS>ATOM
      1 N9          -0.8280     0.1620     3.5350 n1         1 G45      -0.256800
      2 C8           0.3240     0.0030     2.6510 cg         1 G45       0.121500
      3 N7           0.0000     0.0000     0.0000 nz         1 G45       0.270600
      4 C5           3.8750     0.0000     1.3750 cc         1 G45      -0.391600
      5 C6           3.5520     0.0000     0.0000 cc         1 G45       0.564600
      6 C2           1.2880    -0.0970     0.4660 c2         1 G45      -0.130900
      7 C4           2.8340    -0.2070     2.4450 c3         1 G45       0.181800
      8 O35          1.2350     9.2360     2.8180 o          1 G45      -0.568800
      9 O34          0.8940     7.7810     0.8140 o          1 G45      -0.568800
     10 N31          3.0900     8.8230     1.2440 n3         1 G45      -0.529500
     11 C33          3.8850     9.8160     1.9720 c3         1 G45       0.271600
     12 C32          3.5410     8.3380    -0.0630 c3         1 G45       0.271600
     13 C28          2.0960     6.8290     2.8590 cc         1 G45      -0.022600
     14 C27          2.4200     6.8460     4.1560 cd         1 G45       0.018000
     15 C26          2.7060     5.6110     4.7020 cd         1 G45      -0.133000
     16 S29          2.1370     5.1770     2.2580 ss         1 G45      -0.207800
     17 C25          2.6150     4.5780     3.8410 cc         1 G45       0.058900
     18 C21          2.8700     3.1610     4.1770 ca         1 G45       0.018000
     19 C20          3.2380     2.8070     5.4730 ca         1 G45      -0.053000
     20 C19          3.4760     1.4680     5.7810 ca         1 G45       0.069000
     21 C23          3.8550     1.0940     7.1100 cg         1 G45       0.190800
     22 N24          4.1620     0.8160     8.1680 n1         1 G45      -0.316800
     23 C18          3.3440     0.4930     4.7890 ca         1 G45      -0.097000
     24 C22          2.7370     2.1750     3.1980 ca         1 G45      -0.086000
     25 C17          2.9800     0.8510     3.5080 ca         1 G45      -0.116300
     26 C14          3.0030    -1.5930     3.0700 c3         1 G45      -0.064700
     27 C16          1.8710    -1.8440     4.0680 c3         1 G45      -0.018100
     28 C15          2.9590    -2.6560     1.9720 c3         1 G45      -0.018100
     29 C3           1.4730    -0.1000     1.8030 ce         1 G45       0.125100
     30 C10          5.1960     0.2010     1.4930 cd         1 G45      -0.167600
     31 C13          5.9730     0.2710     2.7820 c3         1 G45       0.078200
     32 N11          5.7040     0.3290     0.2450 na         1 G45       0.487400
     33 N12          4.6500     0.1980    -0.6710 nd         1 G45      -0.601800
     34 O1           2.2790    -0.1840    -0.4430 os         1 G45      -0.256400
     35 H1          -0.5310    -0.7850     0.3210 hn         1 G45       0.224467
     36 H2           0.0080     0.0110    -1.0010 hn         1 G45       0.224467
     37 H3           4.7230     9.3250     2.4530 h1         1 G45       0.006533
     38 H4           4.2540    10.5620     1.2780 h1         1 G45       0.006533
     39 H5           3.2670    10.2940     2.7220 h1         1 G45       0.006533
     40 H6           2.9160     8.7620    -0.8400 h1         1 G45       0.006533
     41 H7           4.5690     8.6370    -0.2240 h1         1 G45       0.006533
     42 H8           3.4690     7.2580    -0.0920 h1         1 G45       0.006533
     43 H9           2.4800     7.7260     4.7830 ha         1 G45       0.142000
     44 H10          2.9900     5.4230     5.7310 ha         1 G45       0.133000
     45 H11          3.2380     3.5520     6.2590 ha         1 G45       0.134000
     46 H12          3.4880    -0.5520     5.0360 ha         1 G45       0.147000
     47 H13          2.3470     2.4320     2.2200 ha         1 G45       0.111000
     48 H14          3.8610    -1.5890     3.7300 hc         1 G45       0.064700
     49 H15          1.7690    -0.9860     4.7220 hc         1 G45       0.017033
     50 H16          0.9430    -2.0010     3.5310 hc         1 G45       0.017033
     51 H17          2.0990    -2.7230     4.6590 hc         1 G45       0.017033
     52 H18          2.7330    -3.6200     2.4110 hc         1 G45       0.017033
     53 H19          2.1920    -2.4000     1.2500 hc         1 G45       0.017033
     54 H20          3.9210    -2.7030     1.4750 hc         1 G45       0.017033
     55 H21          7.0030    -0.0120     2.5990 hc         1 G45       0.027700
     56 H22          5.9400     1.2810     3.1700 hc         1 G45       0.027700
     57 H23          5.5360    -0.4080     3.5050 hc         1 G45       0.027700
     58 H24          6.6650     0.4900     0.0160 hn         1 G45       0.171700
     59 H73         -0.5250     0.6100     0.5950 hn         1 G45       0.224467
     60 S30          1.6830     8.2470     1.9000 sy         1 G45       1.072200
@<TRIPOS>BOND
     1     1     2 3   
     2     2    29 1   
     3     3     6 1   
     4     3    35 1   
     5     3    36 1   
     6     3    59 1   
     7     4     5 1   
     8     4     7 1   
     9     4    30 2   
    10     5    33 2   
    11     5    34 1   
    12     6    29 2   
    13     6    34 1   
    14     7    25 1   
    15     7    26 1   
    16     7    29 1   
    17     8    60 2   
    18     9    60 2   
    19    10    11 1   
    20    10    12 1   
    21    10    60 1   
    22    11    37 1   
    23    11    38 1   
    24    11    39 1   
    25    12    40 1   
    26    12    41 1   
    27    12    42 1   
    28    13    14 2   
    29    13    16 1   
    30    13    60 1   
    31    14    15 1   
    32    14    43 1   
    33    15    17 2   
    34    15    44 1   
    35    16    17 1   
    36    17    18 1   
    37    18    19 ar  
    38    18    24 ar  
    39    19    20 ar  
    40    19    45 1   
    41    20    21 1   
    42    20    23 ar  
    43    21    22 3   
    44    23    25 ar  
    45    23    46 1   
    46    24    25 ar  
    47    24    47 1   
    48    26    27 1   
    49    26    28 1   
    50    26    48 1   
    51    27    49 1   
    52    27    50 1   
    53    27    51 1   
    54    28    52 1   
    55    28    53 1   
    56    28    54 1   
    57    30    31 1   
    58    30    32 1   
    59    31    55 1   
    60    31    56 1   
    61    31    57 1   
    62    32    33 1   
    63    32    58 1   
@<TRIPOS>SUBSTRUCTURE
     1 G45         1 TEMP              0 ****  ****    0 ROOT
