@<TRIPOS>MOLECULE
molecule
   45    48     1     0     0
SMALL
bcc


@<TRIPOS>ATOM
      1 C            0.0000     0.0000     0.0000 ca         1 G4A      -0.098000
      2 C2           2.0860     0.0010    -1.2070 ca         1 G4A       0.045100
      3 C3           1.3870     0.0000     0.0000 ca         1 G4A      -0.083200
      4 C10          9.4530    -0.0070     1.6670 ca         1 G4A      -0.109000
      5 C11          7.9480    -0.0400    -0.2220 ca         1 G4A      -0.043100
      6 C12          8.1320    -0.0100     1.1650 ca         1 G4A      -0.019200
      7 C13          5.8700     0.0060     1.1650 cc         1 G4A       0.347500
      8 C14         10.5230    -0.0340     0.8080 ca         1 G4A      -0.086000
      9 C15         10.3260    -0.0690    -0.5650 ca         1 G4A      -0.120000
     10 C16          9.0470    -0.0780    -1.0760 ca         1 G4A      -0.070000
     11 C18          6.9280    -1.4190     3.8300 c3         1 G4A      -0.075400
     12 C19          6.9120    -1.4100     5.3600 c3         1 G4A      -0.257600
     13 C4           3.5750     0.0010     0.4190 cc         1 G4A       0.595900
     14 C5           4.7680     0.0020     1.0680 ce         1 G4A      -0.465600
     15 C7          -0.6870    -0.0060    -1.1990 ca         1 G4A      -0.095000
     16 C8           0.0050    -0.0110    -2.3970 ca         1 G4A      -0.097000
     17 C9           1.3860    -0.0110    -2.4040 ca         1 G4A      -0.081000
     18 N20          2.3390     0.0000     1.0190 na         1 G4A      -0.164200
     19 N21          6.9740     0.0130     1.8480 na         1 G4A      -0.009400
     20 O22          3.4100     0.0020    -0.9190 os         1 G4A      -0.218700
     21 O23          6.8620    -2.9760     7.4880 o          1 G4A      -0.688867
     22 O24          5.6300    -3.7300     5.6670 o          1 G4A      -0.688867
     23 O25          8.1040    -3.7740     5.6930 o          1 G4A      -0.688867
     24 S26          6.2190    -0.0400    -0.5570 ss         1 G4A      -0.182500
     25 S27          6.8750    -3.1170     5.9730 s6         1 G4A       1.239800
     26 H1          -0.5430     0.0040     0.9370 ha         1 G4A       0.154000
     27 H2           9.6220     0.0200     2.7360 ha         1 G4A       0.159000
     28 H3          11.5300    -0.0270     1.2060 ha         1 G4A       0.154000
     29 H4          11.1770    -0.0910    -1.2340 ha         1 G4A       0.149000
     30 H5           8.8950    -0.1060    -2.1480 ha         1 G4A       0.146000
     31 H6           6.0790     0.5490     3.6620 h1         1 G4A       0.073200
     32 H7           7.8480     0.5190     3.6810 h1         1 G4A       0.073200
     33 H8           6.0390    -1.9160     3.4620 hc         1 G4A       0.058700
     34 H9           7.8070    -1.9460     3.4810 hc         1 G4A       0.058700
     35 H10          6.0330    -0.8820     5.7100 h1         1 G4A       0.076700
     36 H11          7.8020    -0.9130     5.7280 h1         1 G4A       0.076700
     37 H12          4.1470     0.0060     1.9550 ha         1 G4A       0.148000
     38 H14          2.5190     0.8760     2.9120 h1         1 G4A       0.084700
     39 H15          2.4920    -0.8930     2.9060 h1         1 G4A       0.084700
     40 H16          1.0000     0.0150     2.6280 h1         1 G4A       0.084700
     41 H17         -1.7700    -0.0060    -1.2000 ha         1 G4A       0.160000
     42 H18         -0.5400    -0.0160    -3.3330 ha         1 G4A       0.162000
     43 H19          1.9220    -0.0150    -3.3450 ha         1 G4A       0.164000
     44 C6           2.0700    -0.0000     2.4600 c3         1 G4A       0.029600
     45 C17          6.9580     0.0210     3.3130 c3         1 G4A       0.014300
@<TRIPOS>BOND
     1    15     1 ar
     2    15    16 ar
     3     1     3 ar
     4    16    17 ar
     5    44    18 1
     6     3    18 1
     7     3     2 ar
     8    18    13 2
     9    17     2 ar
    10     2    20 1
    11    13    20 1
    12    13    14 1
    13    14     7 2
    14     7    24 1
    15     7    19 1
    16    45    19 1
    17    45    11 1
    18    24     5 1
    19    19     6 1
    20     6     5 ar
    21     6     4 ar
    22     5    10 ar
    23     4     8 ar
    24    12    11 1
    25    12    25 1
    26    10     9 ar
    27     8     9 ar
    28    25    23 1
    29    25    22 1
    30    25    21 1
    31     1    26 1
    32     4    27 1
    33     8    28 1
    34     9    29 1
    35    10    30 1
    36    45    31 1
    37    45    32 1
    38    11    33 1
    39    11    34 1
    40    12    35 1
    41    12    36 1
    42    14    37 1
    43    44    38 1
    44    44    39 1
    45    44    40 1
    46    15    41 1
    47    16    42 1
    48    17    43 1
@<TRIPOS>SUBSTRUCTURE
     1 G4A         1 TEMP              0 ****  ****    0 ROOT
