@<TRIPOS>MOLECULE
G4A
   45    48     1     0     0
SMALL
bcc


@<TRIPOS>ATOM
      1 C            0.0000     0.0000     0.0000 ca         1 G4A      -0.047000
      2 C2           2.0860     0.0010    -1.2070 ca         1 G4A       0.059100
      3 C3           1.3870     0.0000     0.0000 ca         1 G4A      -0.261200
      4 C10          9.4530    -0.0070     1.6670 ca         1 G4A      -0.070000
      5 C11          7.9480    -0.0400    -0.2220 ca         1 G4A      -0.008100
      6 C12          8.1320    -0.0100     1.1650 ca         1 G4A      -0.200200
      7 C13          5.8700     0.0060     1.1650 cc         1 G4A       0.212500
      8 C14         10.5230    -0.0340     0.8080 ca         1 G4A      -0.055000
      9 C15         10.3260    -0.0690    -0.5650 ca         1 G4A      -0.086000
     10 C16          9.0470    -0.0780    -1.0760 ca         1 G4A      -0.030000
     11 C18          6.9280    -1.4190     3.8300 c3         1 G4A      -0.006400
     12 C19          6.9120    -1.4100     5.3600 c3         1 G4A      -0.062600
     13 C4           3.5750     0.0010     0.4190 cd         1 G4A       0.449900
     14 C5           4.7680     0.0020     1.0680 cf         1 G4A      -0.434600
     15 C7          -0.6870    -0.0060    -1.1990 ca         1 G4A      -0.072000
     16 C8           0.0050    -0.0110    -2.3970 ca         1 G4A      -0.053000
     17 C9           1.3860    -0.0110    -2.4040 ca         1 G4A      -0.057000
     18 N20          2.3390     0.0000     1.0190 na         1 G4A       0.301800
     19 N21          6.9740     0.0130     1.8480 na         1 G4A       0.489600
     20 O22          3.4100     0.0020    -0.9190 os         1 G4A      -0.178700
     21 O23          6.8620    -2.9760     7.4880 o          1 G4A      -0.642533
     22 O24          5.6300    -3.7300     5.6670 o          1 G4A      -0.642533
     23 O25          8.1040    -3.7740     5.6930 o          1 G4A      -0.642533
     24 S26          6.2190    -0.0400    -0.5570 ss         1 G4A      -0.290500
     25 S27          6.8750    -3.1170     5.9730 s6         1 G4A       0.949800
     26 H1          -0.5430     0.0040     0.9370 ha         1 G4A       0.120000
     27 H2           9.6220     0.0200     2.7360 ha         1 G4A       0.131000
     28 H3          11.5300    -0.0270     1.2060 ha         1 G4A       0.119000
     29 H4          11.1770    -0.0910    -1.2340 ha         1 G4A       0.117000
     30 H5           8.8950    -0.1060    -2.1480 ha         1 G4A       0.117000
     31 H6           6.0790     0.5490     3.6620 h1         1 G4A       0.045700
     32 H7           7.8480     0.5190     3.6810 h1         1 G4A       0.045700
     33 H8           6.0390    -1.9160     3.4620 hc         1 G4A       0.029200
     34 H9           7.8070    -1.9460     3.4810 hc         1 G4A       0.029200
     35 H10          7.8020    -0.9130     5.7280 h1         1 G4A       0.051200
     36 H11          6.0330    -0.8820     5.7100 h1         1 G4A       0.051200
     37 H12          4.1470     0.0060     1.9550 ha         1 G4A       0.105000
     38 H14          1.0000     0.0150     2.6280 h1         1 G4A       0.049367
     39 H15          2.5190     0.8760     2.9120 h1         1 G4A       0.049367
     40 H16          2.4920    -0.8930     2.9060 h1         1 G4A       0.049367
     41 H17         -1.7700    -0.0060    -1.2000 ha         1 G4A       0.124000
     42 H18         -0.5400    -0.0160    -3.3330 ha         1 G4A       0.123000
     43 H19          1.9220    -0.0150    -3.3450 ha         1 G4A       0.128000
     44 C6           2.0700    -0.0000     2.4600 c3         1 G4A      -0.009400
     45 C17          6.9580     0.0210     3.3130 c3         1 G4A      -0.101700
@<TRIPOS>BOND
     1     1     3 ar  
     2     1    15 ar  
     3     1    26 1   
     4     2     3 ar  
     5     2    17 ar  
     6     2    20 1   
     7     3    18 1   
     8     4     6 ar  
     9     4     8 ar  
    10     4    27 1   
    11     5     6 ar  
    12     5    10 ar  
    13     5    24 1   
    14     6    19 1   
    15     7    14 2   
    16     7    19 1   
    17     7    24 1   
    18     8     9 ar  
    19     8    28 1   
    20     9    10 ar  
    21     9    29 1   
    22    10    30 1   
    23    11    12 1   
    24    11    33 1   
    25    11    34 1   
    26    11    45 1   
    27    12    25 1   
    28    12    35 1   
    29    12    36 1   
    30    13    14 1   
    31    13    18 2   
    32    13    20 1   
    33    14    37 1   
    34    15    16 ar  
    35    15    41 1   
    36    16    17 ar  
    37    16    42 1   
    38    17    43 1   
    39    18    44 1   
    40    19    45 1   
    41    21    25 1   
    42    22    25 1   
    43    23    25 1   
    44    31    45 1   
    45    32    45 1   
    46    38    44 1   
    47    39    44 1   
    48    40    44 1   
@<TRIPOS>SUBSTRUCTURE
     1 G4A         1 TEMP              0 ****  ****    0 ROOT
