@<TRIPOS>MOLECULE
G4G
   82    80     1     0     0
SMALL
bcc


@<TRIPOS>ATOM
      1 C1        825.5520   37.6000 -834.7840 c1        1 G4G      0.539000
      2 O2       -138.4440   -9.0060  130.9480 o         1 G4G      0.059000
      3 N2        828.9090   38.9630 -835.9000 n4        1 G4G     -0.134000
      4 C2       -136.3040   -7.1480  132.4210 c1        1 G4G     -0.225000
      5 O1        827.5230   37.4910 -837.0210 o         1 G4G     -0.168000
      6 N1       -137.5450   -5.5020  129.2820 n4        1 G4G     -0.092000
      7 C3        827.0810   39.1130 -833.7380 c2        1 G4G     -0.535000
      8 C4        826.7270   38.2690 -834.8710 c2        1 G4G     -0.437000
      9 C5       -136.8110   -5.7650  130.4980 c1        1 G4G      0.069000
     10 C6       -136.9410   -6.9010  131.2880 c2        1 G4G     -0.134000
     11 C7       -132.2010  -10.9300  138.6450 c3        1 G4G     -0.247000
     12 C8       -137.8470   -8.0100  130.9540 c1        1 G4G      0.322000
     13 C9        827.6310   38.1510 -835.9980 c2        1 G4G      0.334000
     14 S9       -133.7740   -6.2450  135.3650 s6        1 G4G      3.028000
     15 O10      -132.4080   -9.5750  136.7270 os        1 G4G     -0.717000
     16 O11      -132.8170   -5.2610  135.5070 o         1 G4G     -0.871000
     17 C12      -132.4060  -12.2310  139.2670 c2        1 G4G      0.376000
     18 C13      -132.4390  -10.9340  137.1260 c3        1 G4G      0.133000
     19 C14      -132.1370  -12.4850  140.5760 c1        1 G4G     -0.331000
     20 C17      -134.8730   -6.3110  136.5420 c2        1 G4G     -1.032000
     21 C18      -135.5690   -7.2790  133.6090 c3        1 G4G      0.020000
     22 C19       826.6690   40.3420 -833.4640 c1        1 G4G      0.376000
     23 C20      -134.5290   -5.0820  133.1610 c2        1 G4G      0.061000
     24 C21      -128.6300   -9.4340  134.1730 c3        1 G4G     -0.221000
     25 N22      -127.9680   -5.4860  133.5940 n2        1 G4G     -0.184000
     26 C23      -129.6620   -8.3540  134.5120 c3        1 G4G      0.151000
     27 C24      -129.7180   -7.3090  133.3410 c3        1 G4G     -0.084000
     28 C25      -128.3420   -6.6550  133.2710 c2        1 G4G     -0.105000
     29 C26      -135.0620   -5.4150  137.5250 c2        1 G4G      0.102000
     30 C27      -134.6430   -6.1480  133.9790 c2        1 G4G     -0.948000
     31 N28      -130.9370   -8.9230  134.7850 n2        1 G4G     -1.153000
     32 C29      -131.4340  -11.7710  136.4010 c2        1 G4G     -0.334000
     33 C30      -131.9050  -12.7660  141.7400 c1        1 G4G      0.240000
     34 C31      -130.1110  -11.7000  136.5510 c2        1 G4G     -0.112000
     35 N32      -130.8620   -6.4150  133.4810 n3        1 G4G     -0.349000
     36 C33      -131.1520   -5.6170  132.3010 c3        1 G4G     -0.035000
     37 C34      -130.5980   -4.2160  132.2630 c2        1 G4G     -0.149000
     38 C35      -130.7500   -3.4440  133.4840 c2        1 G4G     -0.213000
     39 C36      -129.9120   -2.5090  133.9660 c2        1 G4G     -0.010000
     40 C37      -128.6480   -2.1220  133.4000 c2        1 G4G     -0.511000
     41 C38      -130.0770   -3.7280  131.1290 c2        1 G4G     -0.162000
     42 C39      -127.9320   -1.0460  133.6820 c1        1 G4G      0.310000
     43 O40      -133.0820   -7.6040  135.3600 os        1 G4G     -1.154000
     44 O41      -133.2350   -9.7320  134.4720 o         1 G4G     -0.887000
     45 H1       -135.5420   -7.2000  136.5600 h4        1 G4G      0.208000
     46 HN21      829.4150   38.7040 -835.0480 hn        1 G4G      0.268333
     47 HN2A      828.6790   39.9610 -835.8540 hn        1 G4G      0.268333
     48 H2       -136.3190   -7.4310  134.4490 hc        1 G4G      0.165500
     49 HN11     -138.2150   -6.2050  128.9510 hn        1 G4G      0.263667
     50 HN12     -136.8390   -5.3380  128.5420 hn        1 G4G      0.263667
     51 H3        827.7170   38.6300 -832.9560 ha        1 G4G      0.220000
     52 H5       -135.1010   -5.0000  132.2170 ha        1 G4G      0.173500
     53 H71      -129.6110  -10.9850  137.2220 ha        1 G4G      0.146500
     54 H72      -132.8960  -10.1690  139.1250 hc        1 G4G      0.200000
     55 H13      -133.4820  -11.3170  136.9130 h1        1 G4G      0.117000
     56 H14      -132.8040  -13.0680  138.6420 ha        1 G4G      0.203000
     57 H17      -134.4550   -4.4950  137.6210 ha        1 G4G      0.168500
     58 H18      -134.9630   -8.2420  133.5360 hc        1 G4G      0.165500
     59 H19      -135.8410   -5.5460  138.2980 ha        1 G4G      0.168500
     60 H20      -133.8570   -4.2290  133.3850 ha        1 G4G      0.173500
     61 H211     -128.6430   -4.8440  133.9580 hn        1 G4G      0.154000
     62 H212     -127.6100   -8.9750  134.2070 hc        1 G4G      0.101333
     63 HN22     -128.6590  -10.2660  134.9190 hc        1 G4G      0.101333
     64 H23      -128.8040   -9.8570  133.1560 hc        1 G4G      0.101333
     65 H24      -129.3160   -7.8110  135.4450 h1        1 G4G      0.096000
     66 H251     -129.8570   -7.8830  132.3750 h1        1 G4G      0.124000
     67 H252     -127.5660   -7.3310  132.8470 h4        1 G4G      0.166000
     68 H29      -131.8820  -12.5120  135.7120 ha        1 G4G      0.170000
     69 H30      -129.4280  -12.3610  135.9900 ha        1 G4G      0.146500
     70 H31      -131.6990  -13.0160  142.7690 ha        1 G4G      0.299000
     71 H331     -129.9740   -4.3320  130.2170 ha        1 G4G      0.135000
     72 H332     -130.8340   -6.1740  131.3730 h1        1 G4G      0.078500
     73 H35      -132.2820   -5.5320  132.2650 h1        1 G4G      0.078500
     74 H36      -131.6680   -3.6670  134.0600 ha        1 G4G      0.114000
     75 H37      -130.1900   -1.9820  134.8990 ha        1 G4G      0.135000
     76 H38      -128.2020   -2.8100  132.6420 ha        1 G4G      0.207000
     77 H39      -129.7280   -2.6880  131.0430 ha        1 G4G      0.135000
     78 S8       -132.2010   -9.0960  135.1120 s6        1 G4G      2.992000
     79 H231      829.5000   38.7850 -836.7220 hn        1 G4G      0.268333
     80 H131     -138.0450   -4.6070  129.4270 hn        1 G4G      0.263667
     81 H281     -131.1620  -10.5370  138.8720 hc        1 G4G      0.200000
     82 H321     -130.7380   -5.8130  134.2810 hn        1 G4G      0.172000
@<TRIPOS>BOND
     1    1    8 1
     2    2   12 1
     3    3   13 1
     4    3   46 1
     5    3   47 1
     6    3   79 1
     7    4   10 1
     8    4   21 1
     9    5   13 1
    10    6    9 1
    11    6   49 1
    12    6   50 1
    13    6   80 1
    14    7    8 1
    15    7   22 1
    16    7   51 1
    17    8   13 1
    18    9   10 1
    19   10   12 1
    20   11   17 1
    21   11   18 1
    22   11   54 1
    23   11   81 1
    24   14   16 1
    25   14   20 1
    26   14   30 1
    27   14   43 1
    28   15   18 1
    29   15   78 1
    30   17   19 1
    31   17   56 1
    32   18   32 1
    33   18   55 1
    34   19   33 1
    35   20   29 1
    36   20   45 1
    37   21   30 1
    38   21   48 1
    39   21   58 1
    40   23   30 1
    41   23   52 1
    42   23   60 1
    43   24   26 1
    44   24   62 1
    45   24   63 1
    46   24   64 1
    47   25   28 1
    48   25   61 1
    49   26   27 1
    50   26   31 1
    51   26   65 1
    52   27   28 1
    53   27   35 1
    54   27   66 1
    55   28   67 1
    56   29   57 1
    57   29   59 1
    58   31   78 1
    59   32   34 1
    60   32   68 1
    61   33   70 1
    62   34   53 1
    63   34   69 1
    64   35   36 1
    65   35   82 1
    66   36   37 1
    67   36   72 1
    68   36   73 1
    69   37   38 1
    70   37   41 1
    71   38   39 1
    72   38   74 1
    73   39   40 1
    74   39   75 1
    75   40   42 1
    76   40   76 1
    77   41   71 1
    78   41   77 1
    79   43   78 1
    80   44   78 1
@<TRIPOS>SUBSTRUCTURE
     1 G4G         1 TEMP              0 ****  ****    0 ROOT
