@<TRIPOS>MOLECULE
G4J
   49    53     1     0     0
SMALL
bcc


@<TRIPOS>ATOM
      1 N3           0.0000     0.0000     0.0000 nu         1 G4J      -0.224300
      2 C4           2.4200     0.0000     0.6480 cc         1 G4J       0.377200
      3 N2           3.5570     0.0000     0.0000 nd         1 G4J      -0.641800
      4 C7          -1.2490    -0.0230     3.8700 ca         1 G4J      -0.447600
      5 C6           0.0960    -0.0250     3.5600 ca         1 G4J       0.511200
      6 C9          -4.3120     0.0010     1.8400 c3         1 G4J       0.129300
      7 C13         -5.4150     1.0740     4.2170 c3         1 G4J       0.026700
      8 C8          -2.1740    -0.0120     2.8230 ca         1 G4J       0.567200
      9 N5          -1.7300    -0.0050     1.5710 nb         1 G4J      -0.739000
     10 C18         -7.7040     4.7560     2.8230 cx         1 G4J       0.341600
     11 C16         -6.9190     3.5620     3.3720 cx         1 G4J      -0.223700
     12 N1           3.2830     0.0030    -1.3730 na         1 G4J       0.483400
     13 C2           1.9330     0.0060    -1.5290 cd         1 G4J      -0.290300
     14 C3           1.3780     0.0040    -0.2910 cc         1 G4J      -0.231700
     15 C5          -0.4300    -0.0070     1.3160 ca         1 G4J       0.724900
     16 N4           0.4690    -0.0120     2.2880 nb         1 G4J      -0.715000
     17 N6          -3.5340    -0.0110     3.0870 nh         1 G4J      -0.458300
     18 C10         -5.8100     0.0120     2.1870 c3         1 G4J       0.026700
     19 C11         -6.0540    -1.0810     3.2540 c3         1 G4J      -0.031400
     20 C12         -5.7910    -0.3770     4.6010 c3         1 G4J      -0.031400
     21 C14         -3.8990     1.1120     3.9640 c3         1 G4J       0.129300
     22 N7          -6.0780     1.2820     2.9060 n          1 G4J      -0.166800
     23 C15         -6.7600     2.3620     2.4730 c          1 G4J       0.649100
     24 O1          -7.2460     2.3680     1.3620 o          1 G4J      -0.620100
     25 C17         -8.3210     3.8660     3.9040 cx         1 G4J      -0.063400
     26 F1          -8.2180     4.6500     1.5270 f          1 G4J      -0.176300
     27 F2          -7.2820     6.0350     3.2020 f          1 G4J      -0.176300
     28 H9          -0.6690     0.0030    -0.7450 hn         1 G4J       0.284800
     29 H8           2.3030    -0.0020     1.7250 h4         1 G4J       0.060100
     30 H11         -1.5800    -0.0320     4.9010 ha         1 G4J       0.132000
     31 H10          0.8390    -0.0310     4.3480 h4         1 G4J      -0.018900
     32 H13         -4.0650     0.8860     1.2670 h1         1 G4J       0.033700
     33 H12         -4.0810    -0.8840     1.2600 h1         1 G4J       0.033700
     34 H2          -5.7310     1.7950     4.9600 h1         1 G4J       0.056700
     35 H3          -6.1120     3.8220     4.0460 hc         1 G4J       0.079700
     36 H4           4.1430    -0.8790    -3.0640 h1         1 G4J       0.019367
     37 H5           5.2710     0.0010    -2.0240 h1         1 G4J       0.019367
     38 H6           4.1460     0.8900    -3.0600 h1         1 G4J       0.019367
     39 H7           1.3980     0.0090    -2.4710 h4         1 G4J       0.146000
     40 H1          -6.4410    -0.1110     1.3150 h1         1 G4J       0.056700
     41 H15         -5.3620    -1.9040     3.1170 hc         1 G4J       0.028700
     42 H14         -7.0770    -1.4350     3.2060 hc         1 G4J       0.028700
     43 H17         -6.6850    -0.3860     5.2120 hc         1 G4J       0.028700
     44 H16         -4.9700    -0.8540     5.1230 hc         1 G4J       0.028700
     45 H19         -3.6340     2.0470     3.4850 h1         1 G4J       0.033700
     46 H18         -3.3710     1.0230     4.9050 h1         1 G4J       0.033700
     47 H20         -9.1040     3.1970     3.5680 hc         1 G4J       0.068200
     48 H21         -8.3610     4.2960     4.8970 hc         1 G4J       0.068200
     49 C1           4.2760     0.0040    -2.4500 c3         1 G4J       0.027600
@<TRIPOS>BOND
     1     1    14 1   
     2     1    15 1   
     3     1    28 1   
     4     2     3 2   
     5     2    14 1   
     6     2    29 1   
     7     3    12 1   
     8     4     5 ar  
     9     4     8 ar  
    10     4    30 1   
    11     5    16 ar  
    12     5    31 1   
    13     6    17 1   
    14     6    18 1   
    15     6    32 1   
    16     6    33 1   
    17     7    20 1   
    18     7    21 1   
    19     7    22 1   
    20     7    34 1   
    21     8     9 ar  
    22     8    17 1   
    23     9    15 ar  
    24    10    11 1   
    25    10    25 1   
    26    10    26 1   
    27    10    27 1   
    28    11    23 1   
    29    11    25 1   
    30    11    35 1   
    31    12    13 1   
    32    12    49 1   
    33    13    14 2   
    34    13    39 1   
    35    15    16 ar  
    36    17    21 1   
    37    18    19 1   
    38    18    22 1   
    39    18    40 1   
    40    19    20 1   
    41    19    41 1   
    42    19    42 1   
    43    20    43 1   
    44    20    44 1   
    45    21    45 1   
    46    21    46 1   
    47    22    23 1   
    48    23    24 2   
    49    25    47 1   
    50    25    48 1   
    51    36    49 1   
    52    37    49 1   
    53    38    49 1   
@<TRIPOS>SUBSTRUCTURE
     1 G4J         1 TEMP              0 ****  ****    0 ROOT
