@<TRIPOS>MOLECULE
molecule
   49    53     1     0     0
SMALL
bcc


@<TRIPOS>ATOM
      1 N3           0.0000     0.0000     0.0000 nu         1 G4J      -0.723300
      2 C4           2.4200     0.0000     0.6480 cc         1 G4J       0.334200
      3 N2           3.5570     0.0000     0.0000 nd         1 G4J      -0.510800
      4 C7          -1.2490    -0.0230     3.8700 ca         1 G4J      -0.459600
      5 C6           0.0960    -0.0250     3.5600 ca         1 G4J       0.511200
      6 C9          -4.3120     0.0010     1.8400 c3         1 G4J       0.159300
      7 C13         -5.4150     1.0740     4.2170 c3         1 G4J       0.102200
      8 C8          -2.1740    -0.0120     2.8230 ca         1 G4J       0.690200
      9 N5          -1.7300    -0.0050     1.5710 nb         1 G4J      -0.845000
     10 C18         -7.7040     4.7560     2.8230 cx         1 G4J       0.357600
     11 C16         -6.9190     3.5620     3.3720 cx         1 G4J      -0.241700
     12 N1           3.2830     0.0030    -1.3730 na         1 G4J       0.058400
     13 C2           1.9330     0.0060    -1.5290 cd         1 G4J      -0.163300
     14 C3           1.3780     0.0040    -0.2910 cc         1 G4J      -0.057700
     15 C5          -0.4300    -0.0070     1.3160 ca         1 G4J       0.968900
     16 N4           0.4690    -0.0120     2.2880 nb         1 G4J      -0.817000
     17 N6          -3.5340    -0.0110     3.0870 nh         1 G4J      -0.696300
     18 C10         -5.8100     0.0120     2.1870 c3         1 G4J       0.102200
     19 C11         -6.0540    -1.0810     3.2540 c3         1 G4J      -0.082900
     20 C12         -5.7910    -0.3770     4.6010 c3         1 G4J      -0.082900
     21 C14         -3.8990     1.1120     3.9640 c3         1 G4J       0.159300
     22 N7          -6.0780     1.2820     2.9060 n          1 G4J      -0.497800
     23 C15         -6.7600     2.3620     2.4730 c          1 G4J       0.714100
     24 O1          -7.2460     2.3680     1.3620 o          1 G4J      -0.581100
     25 C17         -8.3210     3.8660     3.9040 cx         1 G4J      -0.124400
     26 F1          -8.2180     4.6500     1.5270 f          1 G4J      -0.182300
     27 F2          -7.2820     6.0350     3.2020 f          1 G4J      -0.182300
     28 H9          -0.6690     0.0030    -0.7450 hn         1 G4J       0.464800
     29 H8           2.3030    -0.0020     1.7250 h4         1 G4J       0.096100
     30 H11         -1.5800    -0.0320     4.9010 ha         1 G4J       0.147000
     31 H10          0.8390    -0.0310     4.3480 h4         1 G4J       0.029100
     32 H13         -4.0650     0.8860     1.2670 h1         1 G4J       0.061700
     33 H12         -4.0810    -0.8840     1.2600 h1         1 G4J       0.061700
     34 H2          -5.7310     1.7950     4.9600 h1         1 G4J       0.086700
     35 H3          -6.1120     3.8220     4.0460 hc         1 G4J       0.104700
     36 H4           4.1430    -0.8790    -3.0640 h1         1 G4J       0.052367
     37 H5           5.2710     0.0010    -2.0240 h1         1 G4J       0.052367
     38 H6           4.1460     0.8900    -3.0600 h1         1 G4J       0.052367
     39 H7           1.3980     0.0090    -2.4710 h4         1 G4J       0.168000
     40 H1          -6.4410    -0.1110     1.3150 h1         1 G4J       0.086700
     41 H15         -5.3620    -1.9040     3.1170 hc         1 G4J       0.057200
     42 H14         -7.0770    -1.4350     3.2060 hc         1 G4J       0.057200
     43 H17         -6.6850    -0.3860     5.2120 hc         1 G4J       0.057200
     44 H16         -4.9700    -0.8540     5.1230 hc         1 G4J       0.057200
     45 H19         -3.6340     2.0470     3.4850 h1         1 G4J       0.061700
     46 H18         -3.3710     1.0230     4.9050 h1         1 G4J       0.061700
     47 H20         -9.1040     3.1970     3.5680 hc         1 G4J       0.101700
     48 H21         -8.3610     4.2960     4.8970 hc         1 G4J       0.101700
     49 C1           4.2760     0.0040    -2.4500 c3         1 G4J       0.071600
@<TRIPOS>BOND
     1    26    10 1
     2    24    23 2
     3    25    10 1
     4    25    11 1
     5    10    27 1
     6    10    11 1
     7    23    11 1
     8    23    22 1
     9    49    12 1
    10    18    22 1
    11    18    19 1
    12    18     6 1
    13    22     7 1
    14    19    20 1
    15    12     3 1
    16    12    13 1
    17     6    17 1
    18    20     7 1
    19     7    21 1
    20     3     2 2
    21    13    14 2
    22    17    21 1
    23    17     8 1
    24     2    14 1
    25    14     1 1
    26     9     8 ar
    27     9    15 ar
    28     8     4 ar
    29     1    15 1
    30    15    16 ar
    31     4     5 ar
    32    16     5 ar
    33     1    28 1
    34     2    29 1
    35     4    30 1
    36     5    31 1
    37     6    32 1
    38     6    33 1
    39     7    34 1
    40    11    35 1
    41    49    36 1
    42    49    37 1
    43    49    38 1
    44    13    39 1
    45    18    40 1
    46    19    41 1
    47    19    42 1
    48    20    43 1
    49    20    44 1
    50    21    45 1
    51    21    46 1
    52    25    47 1
    53    25    48 1
@<TRIPOS>SUBSTRUCTURE
     1 G4J         1 TEMP              0 ****  ****    0 ROOT
