@<TRIPOS>MOLECULE
G4V
   44    47     1     0     0
SMALL
bcc


@<TRIPOS>ATOM
      1 N3           0.0000     0.0000     0.0000 na         1 G4V       0.274900
      2 C4           1.3710     0.0000     0.0000 cc         1 G4V      -0.264100
      3 N2          -1.6800     0.0060     1.8350 nb         1 G4V      -0.625000
      4 C7           1.5930     0.0040     4.4650 cp         1 G4V      -0.139500
      5 C6           0.6560    -0.0010     2.1370 ca         1 G4V      -0.332400
      6 C9           2.7410    -0.9360     6.3560 ca         1 G4V      -0.038400
      7 C8           1.8270     0.0000     1.2640 cd         1 G4V      -0.113400
      8 C16          5.4520    -2.6350     3.1820 c3         1 G4V       0.252700
      9 C17          3.2700    -0.0000     1.6970 c3         1 G4V       0.023800
     10 C2           3.6600     0.9750     5.2170 ca         1 G4V      -0.084000
     11 C10          3.7420     0.0270     6.2280 ca         1 G4V       0.117100
     12 C15          4.6560    -0.6240     8.3350 c3         1 G4V       0.561400
     13 O1           4.8000     0.0440     7.0800 os         1 G4V      -0.307900
     14 C5          -1.8270     0.0120     3.1420 ca         1 G4V       0.638900
     15 C1           2.5950     0.9680     4.3420 ca         1 G4V      -0.082000
     16 O2           4.9910    -1.3730     2.6950 os         1 G4V      -0.419600
     17 N            1.8400    -3.5440     8.6610 n2         1 G4V      -0.739100
     18 C14          4.1070    -2.0350     8.0860 c3         1 G4V       0.081800
     19 N4           2.8210    -1.8930     7.3800 nh         1 G4V      -0.302000
     20 C3           1.6710    -0.9510     5.4790 ca         1 G4V      -0.087000
     21 F1           5.9010    -0.7080     8.9680 f          1 G4V      -0.201800
     22 N1          -0.8050     0.0160     3.9770 nb         1 G4V      -0.647000
     23 C12         -0.4680     0.0040     1.2860 ca         1 G4V       0.256800
     24 C11          0.4490    -0.0010     3.5260 cp         1 G4V       0.530800
     25 H1          -0.5740    -0.0000    -0.8200 hn         1 G4V       0.122700
     26 H2           1.9930     0.0000    -0.8870 h4         1 G4V       0.149000
     27 H3           0.8090    -2.5630     7.1700 h5         1 G4V       0.023800
     28 H4           3.5950    -2.0990     1.3650 h1         1 G4V      -0.003800
     29 H5           2.9770    -1.7030     2.9750 h1         1 G4V      -0.003800
     30 H6           6.2470    -2.4760     3.9000 h1         1 G4V      -0.013300
     31 H7           5.8250    -3.2260     2.3550 h1         1 G4V      -0.013300
     32 H8           4.6320    -3.1580     3.6590 h1         1 G4V      -0.013300
     33 H9           3.8990     0.2740     0.8580 hc         1 G4V       0.037200
     34 H10          3.4070     0.7150     2.4990 hc         1 G4V       0.037200
     35 H11          4.4360     1.7260     5.1170 ha         1 G4V       0.123000
     36 H12         -2.8310     0.0260     3.5510 h5         1 G4V       0.000100
     37 H13          2.5370     1.7110     3.5560 ha         1 G4V       0.126000
     38 H14          2.7050    -3.6540     9.1520 hn         1 G4V       0.322400
     39 H15          3.9380    -2.5240     9.0380 h1         1 G4V       0.061700
     40 H16          4.8000    -2.5800     7.4560 h1         1 G4V       0.061700
     41 H17          0.8960    -1.7010     5.5790 ha         1 G4V       0.128000
     42 C13          1.7410    -2.6700     7.7130 c2         1 G4V       0.497100
     43 F2           3.7660     0.0890     9.1460 f          1 G4V      -0.201800
     44 C18          3.6560    -1.3970     2.1880 c3         1 G4V       0.205400
@<TRIPOS>BOND
     1     1     2 1   
     2     1    23 1   
     3     1    25 1   
     4     2     7 2   
     5     2    26 1   
     6     3    14 ar  
     7     3    23 ar  
     8     4    15 ar  
     9     4    20 ar  
    10     4    24 1   
    11     5     7 1   
    12     5    23 ar  
    13     5    24 ar  
    14     6    11 ar  
    15     6    19 1   
    16     6    20 ar  
    17     7     9 1   
    18     8    16 1   
    19     8    30 1   
    20     8    31 1   
    21     8    32 1   
    22     9    33 1   
    23     9    34 1   
    24     9    44 1   
    25    10    11 ar  
    26    10    15 ar  
    27    10    35 1   
    28    11    13 1   
    29    12    13 1   
    30    12    18 1   
    31    12    21 1   
    32    12    43 1   
    33    14    22 ar  
    34    14    36 1   
    35    15    37 1   
    36    16    44 1   
    37    17    38 1   
    38    17    42 2   
    39    18    19 1   
    40    18    39 1   
    41    18    40 1   
    42    19    42 1   
    43    20    41 1   
    44    22    24 ar  
    45    27    42 1   
    46    28    44 1   
    47    29    44 1   
@<TRIPOS>SUBSTRUCTURE
     1 G4V         1 TEMP              0 ****  ****    0 ROOT
