@<TRIPOS>MOLECULE
molecule
   44    47     1     0     0
SMALL
bcc


@<TRIPOS>ATOM
      1 N3           0.0000     0.0000     0.0000 na         1 G4V      -0.273100
      2 C4           1.3710     0.0000     0.0000 cc         1 G4V      -0.089100
      3 N2          -1.6800     0.0060     1.8350 nb         1 G4V      -0.759000
      4 C7           1.5930     0.0040     4.4650 cp         1 G4V      -0.139500
      5 C6           0.6560    -0.0010     2.1370 ca         1 G4V      -0.333400
      6 C9           2.7410    -0.9360     6.3560 ca         1 G4V       0.101600
      7 C8           1.8270     0.0000     1.2640 cd         1 G4V      -0.132400
      8 C16          5.4520    -2.6350     3.1820 c3         1 G4V       0.131700
      9 C17          3.2700    -0.0000     1.6970 c3         1 G4V      -0.019200
     10 C2           3.6600     0.9750     5.2170 ca         1 G4V      -0.107000
     11 C10          3.7420     0.0270     6.2280 ca         1 G4V       0.116100
     12 C15          4.6560    -0.6240     8.3350 c3         1 G4V       0.575400
     13 O1           4.8000     0.0440     7.0800 os         1 G4V      -0.345900
     14 C5          -1.8270     0.0120     3.1420 ca         1 G4V       0.699900
     15 C1           2.5950     0.9680     4.3420 ca         1 G4V      -0.105000
     16 O2           4.9910    -1.3730     2.6950 os         1 G4V      -0.433600
     17 N            1.8400    -3.5440     8.6610 n2         1 G4V      -0.896100
     18 C14          4.1070    -2.0350     8.0860 c3         1 G4V       0.183800
     19 N4           2.8210    -1.8930     7.3800 nh         1 G4V      -0.644000
     20 C3           1.6710    -0.9510     5.4790 ca         1 G4V      -0.118000
     21 F1           5.9010    -0.7080     8.9680 f          1 G4V      -0.208300
     22 N1          -0.8050     0.0160     3.9770 nb         1 G4V      -0.753000
     23 C12         -0.4680     0.0040     1.2860 ca         1 G4V       0.494800
     24 C11          0.4490    -0.0010     3.5260 cp         1 G4V       0.561800
     25 H1          -0.5740    -0.0000    -0.8200 hn         1 G4V       0.310700
     26 H2           1.9930     0.0010    -0.8870 h4         1 G4V       0.178000
     27 H3           0.8090    -2.5630     7.1700 h5         1 G4V      -0.000200
     28 H4           3.5950    -2.0990     1.3650 h1         1 G4V       0.027700
     29 H5           2.9770    -1.7030     2.9750 h1         1 G4V       0.027700
     30 H6           6.2470    -2.4760     3.9000 h1         1 G4V       0.029700
     31 H7           4.6320    -3.1580     3.6600 h1         1 G4V       0.029700
     32 H8           5.8250    -3.2260     2.3550 h1         1 G4V       0.029700
     33 H9           3.8990     0.2740     0.8580 hc         1 G4V       0.064700
     34 H10          3.4070     0.7150     2.4990 hc         1 G4V       0.064700
     35 H11          4.4360     1.7260     5.1170 ha         1 G4V       0.157000
     36 H12         -2.8310     0.0260     3.5510 h5         1 G4V       0.063100
     37 H13          2.5370     1.7110     3.5560 ha         1 G4V       0.152000
     38 H14          1.0520    -4.1110     8.9030 hn         1 G4V       0.419400
     39 H15          4.8000    -2.5800     7.4560 h1         1 G4V       0.100200
     40 H16          3.9380    -2.5240     9.0380 h1         1 G4V       0.100200
     41 H17          0.8960    -1.7010     5.5790 ha         1 G4V       0.149000
     42 C13          1.7410    -2.6700     7.7130 c2         1 G4V       0.657100
     43 F2           3.7660     0.0890     9.1460 f          1 G4V      -0.208300
     44 C18          3.6560    -1.3970     2.1880 c3         1 G4V       0.140400
@<TRIPOS>BOND
     1     3    14 ar
     2     3    23 ar
     3    14    22 ar
     4    22    24 ar
     5    23     1 1
     6    23     5 ar
     7     1     2 1
     8    15    10 ar
     9    15     4 ar
    10    24     5 ar
    11    24     4 1
    12     5     7 1
    13    10    11 ar
    14     2     7 2
    15     4    20 ar
    16     7     9 1
    17    11    13 1
    18    11     6 ar
    19    20     6 ar
    20     9    44 1
    21    13    12 1
    22     6    19 1
    23    43    12 1
    24    18    19 1
    25    18    12 1
    26    19    42 1
    27    12    21 1
    28    17    42 2
    29    44    16 1
    30    16     8 1
    31     1    25 1
    32     2    26 1
    33    42    27 1
    34    44    28 1
    35    44    29 1
    36     8    30 1
    37     8    31 1
    38     8    32 1
    39     9    33 1
    40     9    34 1
    41    10    35 1
    42    14    36 1
    43    15    37 1
    44    17    38 1
    45    18    39 1
    46    18    40 1
    47    20    41 1
@<TRIPOS>SUBSTRUCTURE
     1 G4V         1 TEMP              0 ****  ****    0 ROOT
