@<TRIPOS>MOLECULE
G4W
   49    52     1     0     0
SMALL
bcc


@<TRIPOS>ATOM
      1 C10          0.0000     0.0000     0.0000 c3         1 G4W      -0.098400
      2 N12          1.8570     0.0000     1.4540 n7         1 G4W      -0.417200
      3 C17          2.3650     2.0490     5.2880 c3         1 G4W      -0.011900
      4 C20          3.0000     3.7390     3.0230 c3         1 G4W       0.114300
      5 C21          3.4700     2.2840     3.0630 c3         1 G4W      -0.011900
      6 C22          2.6120     5.6160     4.3850 ca         1 G4W       0.528200
      7 C24          3.0800     7.8670     3.7190 ca         1 G4W       0.569300
      8 C26          1.2610     7.3620     5.0430 ca         1 G4W       0.664900
      9 C28          3.8770     8.8350     3.0270 cg         1 G4W       0.112800
     10 N19          2.9080     4.2630     4.3910 nh         1 G4W      -0.444300
     11 C18          1.9270     3.5120     5.1830 c3         1 G4W       0.114300
     12 C11          1.5540     0.0000     0.0000 c3         1 G4W       0.011800
     13 F01         -2.0910    -2.5150     4.2870 f          1 G4W      -0.124900
     14 C16          2.4780     1.4530     3.8820 c3         1 G4W      -0.122700
     15 F05         -4.9780     0.8500     2.6150 f          1 G4W      -0.124900
     16 N13          0.9340     0.8150     2.0590 n          1 G4W      -0.135200
     17 O15          0.2140     2.0990     3.7170 o          1 G4W      -0.625100
     18 C09         -0.3000     0.8530     1.2560 c3         1 G4W       0.141000
     19 N27          1.5520     6.0770     5.0420 nb         1 G4W      -0.653000
     20 C06         -2.6980     0.8350     1.9690 ca         1 G4W      -0.127000
     21 C04         -3.7510     0.2860     2.6810 ca         1 G4W       0.134400
     22 C03         -3.5480    -0.8390     3.4590 ca         1 G4W      -0.164000
     23 C14          1.1270     1.4790     3.2140 c          1 G4W       0.608100
     24 C02         -2.2910    -1.4160     3.5260 ca         1 G4W       0.134400
     25 C07         -1.4450     0.2550     2.0310 ca         1 G4W      -0.060300
     26 N25          1.9970     8.2450     4.4000 nb         1 G4W      -0.635000
     27 N29          4.4970     9.6170     2.4840 n1         1 G4W      -0.347800
     28 C23          3.4240     6.5180     3.6930 ca         1 G4W      -0.350600
     29 C08         -1.2390    -0.8660     2.8140 ca         1 G4W      -0.127000
     30 H1          -0.3740    -0.7710    -0.6620 hc         1 G4W       0.055700
     31 H2          -0.3740     0.9720    -0.2970 hc         1 G4W       0.055700
     32 H3           2.5080     0.7320     1.6590 hn         1 G4W       0.273800
     33 H4           1.5800     1.4820     5.7730 hc         1 G4W       0.027200
     34 H5           3.2660     1.9960     5.8880 hc         1 G4W       0.027200
     35 H6           3.7620     4.3400     2.5420 h1         1 G4W       0.040950
     36 H7           2.0850     3.7950     2.4460 h1         1 G4W       0.040950
     37 H8           3.4230     1.8720     2.0620 hc         1 G4W       0.027200
     38 H9           4.4950     2.2560     3.4120 hc         1 G4W       0.027200
     39 H10          0.3940     7.7200     5.5840 h5         1 G4W       0.005100
     40 H11          1.9610     3.9600     6.1690 h1         1 G4W       0.040950
     41 H12          0.9100     3.5470     4.8100 h1         1 G4W       0.040950
     42 H13          1.9270    -0.9720     0.3000 h1         1 G4W       0.080200
     43 H14          1.9270     0.2660    -0.9820 h1         1 G4W       0.080200
     44 H15          2.8340     0.4320     3.9510 hc         1 G4W       0.050700
     45 H16         -0.5260     1.8730     0.9690 h1         1 G4W       0.042700
     46 H17         -2.8670     1.6870     1.3220 ha         1 G4W       0.127500
     47 H18         -4.3760    -1.2820     3.9990 ha         1 G4W       0.135000
     48 H19          4.2900     6.1590     3.1490 ha         1 G4W       0.140000
     49 H20         -0.2480    -1.2950     2.8940 ha         1 G4W       0.127500
@<TRIPOS>BOND
     1     1    12 1   
     2     1    18 1   
     3     1    30 1   
     4     1    31 1   
     5     2    12 1   
     6     2    16 1   
     7     2    32 1   
     8     3    11 1   
     9     3    14 1   
    10     3    33 1   
    11     3    34 1   
    12     4     5 1   
    13     4    10 1   
    14     4    35 1   
    15     4    36 1   
    16     5    14 1   
    17     5    37 1   
    18     5    38 1   
    19     6    10 1   
    20     6    19 ar  
    21     6    28 ar  
    22     7     9 1   
    23     7    26 ar  
    24     7    28 ar  
    25     8    19 ar  
    26     8    26 ar  
    27     8    39 1   
    28     9    27 3   
    29    10    11 1   
    30    11    40 1   
    31    11    41 1   
    32    12    42 1   
    33    12    43 1   
    34    13    24 1   
    35    14    23 1   
    36    14    44 1   
    37    15    21 1   
    38    16    18 1   
    39    16    23 1   
    40    17    23 2   
    41    18    25 1   
    42    18    45 1   
    43    20    21 ar  
    44    20    25 ar  
    45    20    46 1   
    46    21    22 ar  
    47    22    24 ar  
    48    22    47 1   
    49    24    29 ar  
    50    25    29 ar  
    51    28    48 1   
    52    29    49 1   
@<TRIPOS>SUBSTRUCTURE
     1 G4W         1 TEMP              0 ****  ****    0 ROOT
