@<TRIPOS>MOLECULE
molecule
   49    52     1     0     0
SMALL
bcc


@<TRIPOS>ATOM
      1 C10          0.0000     0.0000     0.0000 c3         1 G4W      -0.142400
      2 N12          1.8570     0.0000     1.4540 n7         1 G4W      -0.426200
      3 C17          2.3650     2.0490     5.2880 c3         1 G4W      -0.068900
      4 C20          3.0000     3.7390     3.0230 c3         1 G4W       0.154300
      5 C21          3.4700     2.2840     3.0630 c3         1 G4W      -0.068900
      6 C22          2.6120     5.6160     4.3850 ca         1 G4W       0.654200
      7 C24          3.0800     7.8670     3.7190 ca         1 G4W       0.564300
      8 C26          1.2610     7.3620     5.0430 ca         1 G4W       0.711900
      9 C28          3.8770     8.8350     3.0270 cg         1 G4W       0.137800
     10 N19          2.9080     4.2630     4.3910 nh         1 G4W      -0.682300
     11 C18          1.9270     3.5120     5.1830 c3         1 G4W       0.154300
     12 C11          1.5540     0.0000     0.0000 c3         1 G4W       0.003800
     13 F01         -2.0910    -2.5150     4.2870 f          1 G4W      -0.134900
     14 C16          2.4780     1.4530     3.8820 c3         1 G4W      -0.146700
     15 F05         -4.9780     0.8500     2.6150 f          1 G4W      -0.134900
     16 N13          0.9340     0.8150     2.0590 n          1 G4W      -0.427200
     17 O15          0.2140     2.0990     3.7170 o          1 G4W      -0.587100
     18 C09         -0.3000     0.8530     1.2560 c3         1 G4W       0.195000
     19 N27          1.5520     6.0770     5.0420 nb         1 G4W      -0.768000
     20 C06         -2.6980     0.8350     1.9690 ca         1 G4W      -0.164000
     21 C04         -3.7510     0.2860     2.6810 ca         1 G4W       0.159400
     22 C03         -3.5480    -0.8390     3.4590 ca         1 G4W      -0.207000
     23 C14          1.1270     1.4790     3.2140 c          1 G4W       0.674100
     24 C02         -2.2910    -1.4160     3.5260 ca         1 G4W       0.159400
     25 C07         -1.4450     0.2550     2.0310 ca         1 G4W      -0.048300
     26 N25          1.9970     8.2450     4.4000 nb         1 G4W      -0.738000
     27 N29          4.4970     9.6170     2.4840 n1         1 G4W      -0.328800
     28 C23          3.4240     6.5180     3.6930 ca         1 G4W      -0.365600
     29 C08         -1.2390    -0.8660     2.8140 ca         1 G4W      -0.164000
     30 H1          -0.3740    -0.7710    -0.6620 hc         1 G4W       0.083200
     31 H2          -0.3740     0.9720    -0.2970 hc         1 G4W       0.083200
     32 H3           2.5080     0.7320     1.6590 hn         1 G4W       0.317800
     33 H4           1.5800     1.4820     5.7730 hc         1 G4W       0.058200
     34 H5           3.2660     1.9960     5.8880 hc         1 G4W       0.058200
     35 H6           3.7620     4.3400     2.5420 h1         1 G4W       0.065700
     36 H7           2.0850     3.7950     2.4460 h1         1 G4W       0.065700
     37 H8           3.4230     1.8720     2.0620 hc         1 G4W       0.058200
     38 H9           4.4950     2.2560     3.4120 hc         1 G4W       0.058200
     39 H10          0.3940     7.7200     5.5840 h5         1 G4W       0.069100
     40 H11          1.9610     3.9600     6.1690 h1         1 G4W       0.065700
     41 H12          0.9100     3.5470     4.8100 h1         1 G4W       0.065700
     42 H13          1.9270    -0.9720     0.3000 h1         1 G4W       0.104700
     43 H14          1.9270     0.2660    -0.9820 h1         1 G4W       0.104700
     44 H15          2.8340     0.4320     3.9510 hc         1 G4W       0.078700
     45 H16         -0.5260     1.8730     0.9690 h1         1 G4W       0.071700
     46 H17         -2.8670     1.6870     1.3220 ha         1 G4W       0.153500
     47 H18         -4.3760    -1.2820     3.9990 ha         1 G4W       0.159000
     48 H19          4.2900     6.1590     3.1490 ha         1 G4W       0.159000
     49 H20         -0.2480    -1.2950     2.8940 ha         1 G4W       0.153500
@<TRIPOS>BOND
     1    27     9 3
     2     9     7 1
     3    26     7 ar
     4    26     8 ar
     5     7    28 ar
     6     8    19 ar
     7    28     6 ar
     8    19     6 ar
     9     6    10 1
    10    10    11 1
    11    10     4 1
    12    11     3 1
    13     3    14 1
    14    17    23 2
    15     4     5 1
    16     5    14 1
    17    13    24 1
    18    14    23 1
    19    23    16 1
    20    29    24 ar
    21    29    25 ar
    22    24    22 ar
    23    16    18 1
    24    16     2 1
    25    18    25 1
    26    18     1 1
    27    25    20 ar
    28    22    21 ar
    29     2    12 1
    30    20    21 ar
    31    21    15 1
    32     1    12 1
    33     1    30 1
    34     1    31 1
    35     2    32 1
    36     3    33 1
    37     3    34 1
    38     4    35 1
    39     4    36 1
    40     5    37 1
    41     5    38 1
    42     8    39 1
    43    11    40 1
    44    11    41 1
    45    12    42 1
    46    12    43 1
    47    14    44 1
    48    18    45 1
    49    20    46 1
    50    22    47 1
    51    28    48 1
    52    29    49 1
@<TRIPOS>SUBSTRUCTURE
     1 G4W         1 TEMP              0 ****  ****    0 ROOT
