@<TRIPOS>MOLECULE
G4Y
   46    50     1     0     0
SMALL
bcc


@<TRIPOS>ATOM
      1 N3           0.0000     0.0000     0.0000 na         1 G4Y       0.280900
      2 C4           4.5700     0.0190    -5.6360 ca         1 G4Y      -0.080300
      3 N2           2.2970     0.0000     0.9540 nb         1 G4Y      -0.629000
      4 C7           5.2220     0.2330    -6.9860 c3         1 G4Y       0.040900
      5 C6           4.6520     0.8970    -3.4090 ca         1 G4Y      -0.040000
      6 C9           6.1520     1.7670    -5.3830 c3         1 G4Y       0.200800
      7 C13          1.7900    -0.0000    -1.3450 ca         1 G4Y      -0.324400
      8 C20         -0.4030    -0.9280    -5.6660 ca         1 G4Y      -0.101000
      9 C21         -0.3290    -0.9300    -4.2890 ca         1 G4Y      -0.097000
     10 C8           6.5110     1.0310    -6.6910 c3         1 G4Y      -0.049400
     11 C18          1.1330     0.9130    -5.7550 ca         1 G4Y      -0.101000
     12 C16          0.4820    -0.0050    -3.6340 ca         1 G4Y      -0.013800
     13 C19          0.3260    -0.0080    -6.3980 ca         1 G4Y      -0.105000
     14 C1           3.6580    -0.0000    -3.0170 cp         1 G4Y      -0.164500
     15 C2           3.1330    -0.8960    -3.9470 ca         1 G4Y      -0.068000
     16 C3           3.5860    -0.8760    -5.2500 ca         1 G4Y      -0.091000
     17 C5           5.1000     0.9060    -4.7160 ca         1 G4Y      -0.137300
     18 C10          3.1640    -0.0000    -1.6210 cp         1 G4Y       0.538800
     19 N1           4.0150    -0.0000    -0.5950 nb         1 G4Y      -0.650000
     20 C11          3.5770    -0.0000     0.6490 ca         1 G4Y       0.638900
     21 C12          1.3700     0.0000     0.0000 ca         1 G4Y       0.252800
     22 C14         -0.4730    -0.0050    -1.2820 cc         1 G4Y      -0.262100
     23 C15          0.5660    -0.0030    -2.1540 cd         1 G4Y      -0.054400
     24 C17          1.2140     0.9200    -4.3780 ca         1 G4Y      -0.097000
     25 N4           7.3320     1.8850    -4.5240 nu         1 G4Y      -0.541200
     26 C22          8.1630     2.9680    -4.6450 c2         1 G4Y       0.510100
     27 H1          -0.5720     0.0000     0.8210 hn         1 G4Y       0.121700
     28 H3           5.4800    -0.7260    -7.4210 hc         1 G4Y       0.024200
     29 H4           5.0630     1.5960    -2.6910 ha         1 G4Y       0.116000
     30 H5           5.7440     2.7460    -5.6070 h1         1 G4Y       0.047700
     31 H6          -1.0330    -1.6470    -6.1750 ha         1 G4Y       0.104000
     32 H7          -0.9010    -1.6510    -3.7160 ha         1 G4Y       0.112500
     33 H8           6.7150     1.7380    -7.4850 hc         1 G4Y       0.029700
     34 H9           7.3490     0.3620    -6.5360 hc         1 G4Y       0.029700
     35 H10          7.0970     3.8070    -6.1050 hn         1 G4Y       0.323400
     36 H11          1.7010     1.6310    -6.3330 ha         1 G4Y       0.104000
     37 H12          0.2650    -0.0090    -7.4800 ha         1 G4Y       0.102000
     38 H13          2.3620    -1.5960    -3.6510 ha         1 G4Y       0.123000
     39 H14          3.1780    -1.5730    -5.9720 ha         1 G4Y       0.109000
     40 H15          4.3020    -0.0000     1.4540 h5         1 G4Y      -0.000900
     41 H16         -1.5210    -0.0080    -1.5600 h4         1 G4Y       0.151000
     42 H17          1.8460     1.6420    -3.8750 ha         1 G4Y       0.112500
     43 H18          7.5340     1.1730    -3.8500 hn         1 G4Y       0.302800
     44 H19          9.0370     3.0540    -4.0100 h5         1 G4Y      -0.000200
     45 H2           4.5670     0.8210    -7.6170 hc         1 G4Y       0.024200
     46 N5           7.9040     3.8870    -5.5180 n2         1 G4Y      -0.792100
@<TRIPOS>BOND
     1     1    21 1   
     2     1    22 1   
     3     1    27 1   
     4     2     4 1   
     5     2    16 ar  
     6     2    17 ar  
     7     3    20 ar  
     8     3    21 ar  
     9     4    10 1   
    10     4    28 1   
    11     4    45 1   
    12     5    14 ar  
    13     5    17 ar  
    14     5    29 1   
    15     6    10 1   
    16     6    17 1   
    17     6    25 1   
    18     6    30 1   
    19     7    18 ar  
    20     7    21 ar  
    21     7    23 1   
    22     8     9 ar  
    23     8    13 ar  
    24     8    31 1   
    25     9    12 ar  
    26     9    32 1   
    27    10    33 1   
    28    10    34 1   
    29    11    13 ar  
    30    11    24 ar  
    31    11    36 1   
    32    12    23 1   
    33    12    24 ar  
    34    13    37 1   
    35    14    15 ar  
    36    14    18 1   
    37    15    16 ar  
    38    15    38 1   
    39    16    39 1   
    40    18    19 ar  
    41    19    20 ar  
    42    20    40 1   
    43    22    23 2   
    44    22    41 1   
    45    24    42 1   
    46    25    26 1   
    47    25    43 1   
    48    26    44 1   
    49    26    46 2   
    50    35    46 1   
@<TRIPOS>SUBSTRUCTURE
     1 G4Y         1 TEMP              0 ****  ****    0 ROOT
