@<TRIPOS>MOLECULE
molecule
   46    50     1     0     0
SMALL
bcc


@<TRIPOS>ATOM
      1 N3           0.0000     0.0000     0.0000 na         1 G4Y      -0.271100
      2 C4           4.5700     0.0190    -5.6360 ca         1 G4Y      -0.073300
      3 N2           2.2970     0.0000     0.9540 nb         1 G4Y      -0.763000
      4 C7           5.2220     0.2330    -6.9860 c3         1 G4Y      -0.040100
      5 C6           4.6520     0.8970    -3.4090 ca         1 G4Y      -0.071000
      6 C9           6.1520     1.7670    -5.3830 c3         1 G4Y       0.297800
      7 C13          1.7900    -0.0000    -1.3450 ca         1 G4Y      -0.327400
      8 C20         -0.4030    -0.9280    -5.6660 ca         1 G4Y      -0.129000
      9 C21         -0.3290    -0.9300    -4.2890 ca         1 G4Y      -0.114500
     10 C8           6.5110     1.0310    -6.6910 c3         1 G4Y      -0.093400
     11 C18          1.1330     0.9130    -5.7550 ca         1 G4Y      -0.129000
     12 C16          0.4820    -0.0050    -3.6340 ca         1 G4Y      -0.026800
     13 C19          0.3260    -0.0080    -6.3980 ca         1 G4Y      -0.129000
     14 C1           3.6580    -0.0000    -3.0170 cp         1 G4Y      -0.163500
     15 C2           3.1330    -0.8960    -3.9470 ca         1 G4Y      -0.084000
     16 C3           3.5860    -0.8760    -5.2500 ca         1 G4Y      -0.124000
     17 C5           5.1000     0.9060    -4.7160 ca         1 G4Y      -0.130300
     18 C10          3.1640    -0.0000    -1.6210 cp         1 G4Y       0.569800
     19 N1           4.0150    -0.0000    -0.5950 nb         1 G4Y      -0.755000
     20 C11          3.5770    -0.0000     0.6490 ca         1 G4Y       0.699900
     21 C12          1.3700     0.0000     0.0000 ca         1 G4Y       0.492800
     22 C14         -0.4730    -0.0050    -1.2820 cc         1 G4Y      -0.085100
     23 C15          0.5660    -0.0030    -2.1540 cd         1 G4Y      -0.078400
     24 C17          1.2140     0.9200    -4.3780 ca         1 G4Y      -0.114500
     25 N4           7.3320     1.8850    -4.5240 nu         1 G4Y      -0.878200
     26 C22          8.1630     2.9680    -4.6450 c2         1 G4Y       0.652100
     27 H1          -0.5720     0.0000     0.8210 hn         1 G4Y       0.309700
     28 H3           5.4800    -0.7260    -7.4210 hc         1 G4Y       0.056700
     29 H4           5.0630     1.5960    -2.6910 ha         1 G4Y       0.145000
     30 H5           5.7440     2.7460    -5.6070 h1         1 G4Y       0.096700
     31 H6          -1.0330    -1.6470    -6.1750 ha         1 G4Y       0.131500
     32 H7          -0.9010    -1.6510    -3.7160 ha         1 G4Y       0.136000
     33 H8           7.3490     0.3620    -6.5360 hc         1 G4Y       0.059700
     34 H9           6.7150     1.7380    -7.4850 hc         1 G4Y       0.059700
     35 H10          8.5110     4.6780    -5.6080 hn         1 G4Y       0.403400
     36 H11          1.7010     1.6310    -6.3330 ha         1 G4Y       0.131500
     37 H12          0.2650    -0.0090    -7.4800 ha         1 G4Y       0.128000
     38 H13          2.3620    -1.5970    -3.6510 ha         1 G4Y       0.146000
     39 H14          3.1780    -1.5730    -5.9720 ha         1 G4Y       0.135000
     40 H15          4.3020    -0.0000     1.4540 h5         1 G4Y       0.061100
     41 H16         -1.5210    -0.0090    -1.5600 h4         1 G4Y       0.179000
     42 H17          1.8460     1.6420    -3.8750 ha         1 G4Y       0.136000
     43 H18          7.5320     1.1750    -3.8480 hn         1 G4Y       0.444800
     44 H19          9.0370     3.0550    -4.0100 h5         1 G4Y      -0.025200
     45 H2           4.5670     0.8210    -7.6170 hc         1 G4Y       0.056700
     46 N5           7.9040     3.8870    -5.5180 n2         1 G4Y      -0.924100
@<TRIPOS>BOND
     1    26    25 1
     2    26    46 2
     3    25     6 1
     4     8    13 ar
     5     8     9 ar
     6    10     6 1
     7    10     4 1
     8     6    17 1
     9    13    11 ar
    10     9    12 ar
    11     4     2 1
    12    17     5 ar
    13    17     2 ar
    14     5    14 ar
    15     2    16 ar
    16    11    24 ar
    17    12    24 ar
    18    12    23 1
    19    14    18 1
    20    14    15 ar
    21    16    15 ar
    22    23     7 1
    23    23    22 2
    24    18     7 ar
    25    18    19 ar
    26     7    21 ar
    27    22     1 1
    28    19    20 ar
    29    21     1 1
    30    21     3 ar
    31    20     3 ar
    32     1    27 1
    33     4    45 1
    34     4    28 1
    35     5    29 1
    36     6    30 1
    37     8    31 1
    38     9    32 1
    39    10    33 1
    40    10    34 1
    41    46    35 1
    42    11    36 1
    43    13    37 1
    44    15    38 1
    45    16    39 1
    46    20    40 1
    47    22    41 1
    48    24    42 1
    49    25    43 1
    50    26    44 1
@<TRIPOS>SUBSTRUCTURE
     1 G4Y         1 TEMP              0 ****  ****    0 ROOT
