@<TRIPOS>MOLECULE
molecule
   34    35     1     0     0
SMALL
bcc


@<TRIPOS>ATOM
      1 C1           0.0000     0.0000     0.0000 ca         1 G50      -0.230500
      2 C2           1.3950     0.0000     0.0000 ca         1 G50       0.162100
      3 C3           2.0930     0.0000     1.2080 ca         1 G50      -0.230500
      4 C4           1.3950    -0.0010     2.4160 ca         1 G50       0.176600
      5 C5           0.0000    -0.0010     2.4160 ca         1 G50      -0.193600
      6 C6          -0.6970    -0.0010     1.2080 ca         1 G50       0.176600
      7 C7          -0.7290    -0.0020     3.6790 c          1 G50       0.594700
      8 C8          -1.1130     1.3320     4.3410 c3         1 G50      -0.153400
      9 C9          -1.2130     1.2420     5.8660 c3         1 G50      -0.028100
     10 O1          -2.0600    -0.0010     1.1850 oh         1 G50      -0.507600
     11 O2          -1.0470    -1.0750     4.2270 o          1 G50      -0.530100
     12 C10         -1.5980     2.5640     6.4780 ca         1 G50      -0.093300
     13 C11         -0.6060     3.4600     6.8480 ca         1 G50      -0.111000
     14 C12         -0.9620     4.6830     7.4140 ca         1 G50      -0.151000
     15 C13         -2.3090     4.9980     7.6040 ca         1 G50       0.099100
     16 C14         -3.2970     4.0890     7.2270 ca         1 G50      -0.151000
     17 C15         -2.9400     2.8650     6.6620 ca         1 G50      -0.111000
     18 O3          -2.6570     6.1910     8.1590 oh         1 G50      -0.522100
     19 O4           2.0750     0.0010    -1.1790 oh         1 G50      -0.516100
     20 O5           2.0960    -0.0020     3.5860 oh         1 G50      -0.507600
     21 H3           3.1760     0.0000     1.2070 ha         1 G50       0.153500
     22 H1          -0.5420     0.0000    -0.9380 ha         1 G50       0.153500
     23 H4           2.2330    -0.8880    -1.4510 ho         1 G50       0.426000
     24 HA          -2.3670    -0.7580     0.7140 ho         1 G50       0.432000
     25 H5           2.7090    -0.7190     3.5840 ho         1 G50       0.432000
     26 H8C1        -0.3670     2.0740     4.0850 hc         1 G50       0.069700
     27 H8C2        -2.0710     1.6510     3.9490 hc         1 G50       0.069700
     28 H9C1        -0.2530     0.9350     6.2660 hc         1 G50       0.059700
     29 H9C2        -1.9580     0.5010     6.1290 hc         1 G50       0.059700
     30 H11          0.4380     3.2110     6.6980 ha         1 G50       0.137500
     31 H15         -3.7040     2.1560     6.3680 ha         1 G50       0.137500
     32 H12         -0.1940     5.3890     7.7070 ha         1 G50       0.140000
     33 H14         -4.3420     4.3330     7.3750 ha         1 G50       0.140000
     34 HB          -2.7660     6.8340     7.4780 ho         1 G50       0.417000
@<TRIPOS>BOND
     1     2     1 ar
     2     3     2 ar
     3     3     4 ar
     4     5     4 ar
     5     6     5 ar
     6     1     6 ar
     7     5     7 1
     8     7     8 1
     9     8     9 1
    10     6    10 1
    11     7    11 2
    12     9    12 1
    13    12    13 ar
    14    13    14 ar
    15    14    15 ar
    16    15    16 ar
    17    12    17 ar
    18    16    17 ar
    19    15    18 1
    20     2    19 1
    21     4    20 1
    22     3    21 1
    23     1    22 1
    24    19    23 1
    25    10    24 1
    26    20    25 1
    27     8    26 1
    28     8    27 1
    29     9    28 1
    30     9    29 1
    31    13    30 1
    32    17    31 1
    33    14    32 1
    34    16    33 1
    35    18    34 1
@<TRIPOS>SUBSTRUCTURE
     1 G50         1 TEMP              0 ****  ****    0 ROOT
