@<TRIPOS>MOLECULE
G50
   34    35     1     0     0
SMALL
bcc


@<TRIPOS>ATOM
      1 C1          0.0370   -0.4970    0.0790 ca        1 G50     -0.314000
      2 C2          1.3830   -0.1140    0.0350 ca        1 G50      0.215100
      3 C3          2.0630    0.2970    1.1900 ca        1 G50     -0.314000
      4 C4          1.3670    0.3150    2.4060 ca        1 G50      0.224100
      5 C5          0.0160   -0.0720    2.4990 ca        1 G50     -0.255600
      6 C6         -0.6290   -0.4730    1.3130 ca        1 G50      0.224100
      7 C7         -0.7020   -0.0890    3.7960 c         1 G50      0.613700
      8 C8         -0.8820    1.2600    4.4320 c3        1 G50     -0.172400
      9 C9         -1.6440    1.1830    5.7400 c3        1 G50     -0.028100
     10 O1         -1.9540   -0.8110    1.4190 oh        1 G50     -0.486600
     11 O2         -1.1170   -1.1350    4.2980 o         1 G50     -0.516100
     12 C10        -1.7770    2.5210    6.3750 ca        1 G50     -0.112300
     13 C11        -0.6650    3.1280    6.9760 ca        1 G50     -0.092000
     14 C12        -0.7710    4.3740    7.5830 ca        1 G50     -0.183500
     15 C13        -2.0170    5.0240    7.5900 ca        1 G50      0.120100
     16 C14        -3.1390    4.4300    6.9960 ca        1 G50     -0.183500
     17 C15        -3.0090    3.1810    6.3930 ca        1 G50     -0.092000
     18 O3         -2.0640    6.2550    8.2040 oh        1 G50     -0.499100
     19 O4          2.1090   -0.1140   -1.1290 oh        1 G50     -0.489100
     20 O5          1.9810    0.7100    3.5690 oh        1 G50     -0.486600
     21 H3          3.1180    0.5930    1.1300 ha        1 G50      0.150000
     22 H1         -0.4870   -0.8150   -0.8320 ha        1 G50      0.150000
     23 H4          1.5340   -0.4240   -1.8450 ho        1 G50      0.426000
     24 HA         -2.2520   -1.1440    0.5590 ho        1 G50      0.429000
     25 H5          2.9130    0.8930    3.3730 ho        1 G50      0.429000
     26 H8C1        0.1360    1.7050    4.6040 hc        1 G50      0.076200
     27 H8C2       -1.4240    1.9240    3.7080 hc        1 G50      0.076200
     28 H9C1       -1.1070    0.4840    6.4380 hc        1 G50      0.061200
     29 H9C2       -2.6560    0.7350    5.5510 hc        1 G50      0.061200
     30 H11         0.3060    2.6080    6.9670 ha        1 G50      0.135000
     31 H15        -3.8890    2.7110    5.9280 ha        1 G50      0.135000
     32 H12         0.0950    4.8560    8.0570 ha        1 G50      0.140500
     33 H14        -4.1100    4.9440    7.0080 ha        1 G50      0.140500
     34 HB         -2.9730    6.5810    8.1460 ho        1 G50      0.418000
@<TRIPOS>BOND
     1    1    2 ar  
     2    1    6 ar  
     3    1   22 1   
     4    2    3 ar  
     5    2   19 1   
     6    3    4 ar  
     7    3   21 1   
     8    4    5 ar  
     9    4   20 1   
    10    5    6 ar  
    11    5    7 1   
    12    6   10 1   
    13    7    8 1   
    14    7   11 2   
    15    8    9 1   
    16    8   26 1   
    17    8   27 1   
    18    9   12 1   
    19    9   28 1   
    20    9   29 1   
    21   10   24 1   
    22   12   13 ar  
    23   12   17 ar  
    24   13   14 ar  
    25   13   30 1   
    26   14   15 ar  
    27   14   32 1   
    28   15   16 ar  
    29   15   18 1   
    30   16   17 ar  
    31   16   33 1   
    32   17   31 1   
    33   18   34 1   
    34   19   23 1   
    35   20   25 1   
@<TRIPOS>SUBSTRUCTURE
     1 G50         1 TEMP              0 ****  ****    0 ROOT
