@<TRIPOS>MOLECULE
molecule
   57    61     1     0     0
SMALL
bcc


@<TRIPOS>ATOM
      1 O22          0.0000     0.0000     0.0000 o          1 G51      -0.633100
      2 C20          1.2170     0.0000     0.0000 c          1 G51       0.716700
      3 N21          1.8920     0.0000     1.1660 ns         1 G51      -0.582900
      4 C23          1.1600     0.0000     2.4360 c3         1 G51       0.169300
      5 C24          2.1400     0.0000     3.5800 ca         1 G51      -0.116300
      6 C29          2.5930    -1.1970     4.1000 ca         1 G51      -0.110000
      7 C28          3.4980    -1.2030     5.1470 ca         1 G51      -0.117000
      8 C27          3.9510    -0.0070     5.6760 ca         1 G51       0.056100
      9 O40          4.8250     0.2620     6.6900 os         1 G51      -0.325900
     10 C41          5.2110     1.6360     6.5110 c3         1 G51       0.331200
     11 O42          4.0830     2.2240     5.8370 os         1 G51      -0.324900
     12 C26          3.4950     1.2010     5.1520 ca         1 G51       0.046100
     13 C25          2.5890     1.1980     4.1040 ca         1 G51      -0.099000
     14 C17          1.9500    -0.0060    -1.2720 cc         1 G51      -0.416900
     15 C18          3.3560    -0.0140    -1.4350 cc         1 G51       0.377200
     16 N19          3.6200    -0.0170    -2.7120 nd         1 G51      -0.499800
     17 N4           2.4220    -0.0130    -3.4260 na         1 G51       0.036400
     18 C3           2.2530    -0.0150    -4.8860 c3         1 G51       0.036000
     19 C13          3.2060     1.0010    -5.5180 c3         1 G51       0.615900
     20 F57          2.9230     2.2770    -5.0220 f          1 G51      -0.212967
     21 F56          4.5260     0.6610    -5.2040 f          1 G51      -0.212967
     22 F58          3.0400     0.9930    -6.9070 f          1 G51      -0.212967
     23 C5           1.3960    -0.0120    -2.5460 cd         1 G51       0.191300
     24 N6           0.0590    -0.0140    -2.8820 nu         1 G51      -0.642600
     25 C1          -0.1280    -0.4470    -4.2750 c3         1 G51       0.213800
     26 C2           0.7990     0.3740    -5.1910 c3         1 G51      -0.099400
     27 C7          -1.5610    -0.2200    -4.6830 ca         1 G51      -0.111300
     28 C12         -2.2180     0.9300    -4.2860 ca         1 G51      -0.103000
     29 C11         -3.5320     1.1380    -4.6600 ca         1 G51      -0.128000
     30 C10         -4.1890     0.1980    -5.4320 ca         1 G51      -0.068300
     31 C32         -5.6220     0.4250    -5.8400 c3         1 G51      -0.041100
     32 C33         -5.6590     1.1720    -7.1760 c3         1 G51      -0.087100
     33 C9          -3.5310    -0.9510    -5.8290 ca         1 G51      -0.128000
     34 C8          -2.2160    -1.1580    -5.4590 ca         1 G51      -0.103000
     35 H2           2.8920     0.0430     1.1650 hn         1 G51       0.316500
     36 H232         0.5370     0.8850     2.4930 h1         1 G51       0.060700
     37 H231         0.5370    -0.8840     2.4930 h1         1 G51       0.060700
     38 H29          2.2350    -2.1340     3.6910 ha         1 G51       0.145000
     39 H28          3.8510    -2.1430     5.5530 ha         1 G51       0.147000
     40 H412         6.0880     1.6930     5.8780 h2         1 G51       0.072200
     41 H411         5.3490     2.1080     7.4770 h2         1 G51       0.072200
     42 H25          2.2220     2.1360     3.7040 ha         1 G51       0.150000
     43 H18          4.0880    -0.0170    -0.6360 h4         1 G51       0.051100
     44 H3           2.4550    -1.0060    -5.2750 h1         1 G51       0.097700
     45 HN6         -0.4380    -0.6310    -2.2700 hn         1 G51       0.429800
     46 H1           0.1170    -1.4990    -4.3620 h1         1 G51       0.045700
     47 H22          0.5740     0.1550    -6.2270 hc         1 G51       0.089200
     48 H21          0.6580     1.4310    -4.9970 hc         1 G51       0.089200
     49 H12         -1.7040     1.6660    -3.6810 ha         1 G51       0.140000
     50 H11         -4.0470     2.0390    -4.3490 ha         1 G51       0.135500
     51 H322        -6.1230    -0.5290    -5.9460 hc         1 G51       0.049700
     52 H321        -6.1240     1.0150    -5.0830 hc         1 G51       0.049700
     53 H332        -6.6890     1.3430    -7.4650 hc         1 G51       0.037033
     54 H331        -5.1510     2.1230    -7.0720 hc         1 G51       0.037033
     55 H333        -5.1640     0.5790    -7.9350 hc         1 G51       0.037033
     56 H9          -4.0450    -1.6870    -6.4360 ha         1 G51       0.135500
     57 H8          -1.7010    -2.0580    -5.7700 ha         1 G51       0.140000
@<TRIPOS>BOND
     1     9     8 1
     2     9    10 1
     3     7     8 ar
     4     7     6 ar
     5     8    12 ar
     6    10    11 1
     7     6     5 ar
     8    12    11 1
     9    12    13 ar
    10     5    13 ar
    11     5     4 1
    12     4     3 1
    13     3     2 1
    14     2     1 2
    15     2    14 1
    16    15    14 1
    17    15    16 2
    18    14    23 2
    19    16    17 1
    20    23    17 1
    21    23    24 1
    22    17    18 1
    23    20    19 1
    24    24    25 1
    25    22    19 1
    26    19    18 1
    27    19    21 1
    28    18    26 1
    29    25    26 1
    30    25    27 1
    31    28    27 ar
    32    28    29 ar
    33    27    34 ar
    34    29    30 ar
    35    34    33 ar
    36    30    33 ar
    37    30    31 1
    38    32    31 1
    39     3    35 1
    40     4    36 1
    41     4    37 1
    42     6    38 1
    43     7    39 1
    44    10    40 1
    45    10    41 1
    46    13    42 1
    47    15    43 1
    48    18    44 1
    49    24    45 1
    50    25    46 1
    51    26    47 1
    52    26    48 1
    53    28    49 1
    54    29    50 1
    55    31    51 1
    56    31    52 1
    57    32    53 1
    58    32    54 1
    59    32    55 1
    60    33    56 1
    61    34    57 1
@<TRIPOS>SUBSTRUCTURE
     1 G51         1 TEMP              0 ****  ****    0 ROOT
