@<TRIPOS>MOLECULE
G54
   37    40     1     0     0
SMALL
bcc


@<TRIPOS>ATOM
      1 N3           0.0000     0.0000     0.0000 na         1 G54       0.274900
      2 C4           4.5540    -0.0480     5.6480 ca         1 G54      -0.078300
      3 N2           2.2990    -0.0010    -0.9500 nb         1 G54      -0.630000
      4 C7           5.2430    -0.2270     6.9850 c3         1 G54       0.030900
      5 C6           4.8090    -0.7080     3.3600 ca         1 G54      -0.035000
      6 C9           6.4670    -1.4000     5.2780 c3         1 G54       0.180500
      7 C13          1.3680     0.0000     0.0000 ca         1 G54       0.255800
      8 C8           6.6680    -0.7100     6.6440 c3         1 G54      -0.052400
      9 N5           7.6530    -2.0890     2.1030 n1         1 G54      -0.422800
     10 C16          0.5610     0.0010     2.1490 cc         1 G54      -0.141200
     11 C1           3.6480    -0.0120     3.0280 cp         1 G54      -0.155500
     12 C2           2.9510     0.6780     4.0180 ca         1 G54      -0.082000
     13 C3           3.4020     0.6510     5.3200 ca         1 G54      -0.096000
     14 C5           5.2550    -0.7280     4.6670 ca         1 G54      -0.124300
     15 C11          3.1580    -0.0050     1.6300 cp         1 G54       0.535800
     16 N1           4.0110    -0.0040     0.6070 nb         1 G54      -0.645000
     17 C12          3.5770    -0.0010    -0.6400 ca         1 G54       0.641900
     18 C14          1.7820     0.0000     1.3480 ca         1 G54      -0.339400
     19 C15         -0.4700     0.0060     1.2870 cd         1 G54      -0.273100
     20 N4           7.6430    -1.1960     4.4280 n7         1 G54      -0.272800
     21 C17          7.6540    -1.6730     3.1600 c1         1 G54       0.226600
     22 H1          -0.5880    -0.0010    -0.8100 hn         1 G54       0.119700
     23 H2           4.5700    -0.7340     7.6650 hc         1 G54       0.028700
     24 H3           5.5540     0.7420     7.3550 hc         1 G54       0.028700
     25 H4           5.3550    -1.2460     2.5950 ha         1 G54       0.134000
     26 H5           7.3990     0.0000     7.0120 hc         1 G54       0.036700
     27 H6           6.8410    -1.6890     7.0730 hc         1 G54       0.036700
     28 H7           0.5080     0.0010     3.2310 ha         1 G54       0.138000
     29 H8           2.0480     1.2210     3.7640 ha         1 G54       0.118000
     30 H9           2.8490     1.1800     6.0860 ha         1 G54       0.103000
     31 H10          5.3840    -3.0310     6.1640 hc         1 G54       0.019033
     32 H11          5.9500    -3.3410     4.5170 hc         1 G54       0.019033
     33 H12          7.0950    -3.3690     5.8660 hc         1 G54       0.019033
     34 H13          4.3240    -0.0010    -1.4250 h5         1 G54       0.000100
     35 H14         -1.5120     0.0080     1.5840 h4         1 G54       0.145000
     36 H15          8.4690    -1.2040     4.9940 hn         1 G54       0.278800
     37 C10          6.2050    -2.8940     5.4700 c3         1 G54      -0.026100
@<TRIPOS>BOND
     1     1     7 1   
     2     1    19 1   
     3     1    22 1   
     4     2     4 1   
     5     2    13 ar  
     6     2    14 ar  
     7     3     7 ar  
     8     3    17 ar  
     9     4     8 1   
    10     4    23 1   
    11     4    24 1   
    12     5    11 ar  
    13     5    14 ar  
    14     5    25 1   
    15     6     8 1   
    16     6    14 1   
    17     6    20 1   
    18     6    37 1   
    19     7    18 ar  
    20     8    26 1   
    21     8    27 1   
    22     9    21 3   
    23    10    18 1   
    24    10    19 2   
    25    10    28 1   
    26    11    12 ar  
    27    11    15 1   
    28    12    13 ar  
    29    12    29 1   
    30    13    30 1   
    31    15    16 ar  
    32    15    18 ar  
    33    16    17 ar  
    34    17    34 1   
    35    19    35 1   
    36    20    21 1   
    37    20    36 1   
    38    31    37 1   
    39    32    37 1   
    40    33    37 1   
@<TRIPOS>SUBSTRUCTURE
     1 G54         1 TEMP              0 ****  ****    0 ROOT
