@<TRIPOS>MOLECULE
molecule
   37    40     1     0     0
SMALL
bcc


@<TRIPOS>ATOM
      1 N3           0.0000     0.0000     0.0000 na         1 G54      -0.273100
      2 C4           4.5540    -0.0480     5.6480 ca         1 G54      -0.072300
      3 N2           2.2990    -0.0010    -0.9500 nb         1 G54      -0.763000
      4 C7           5.2430    -0.2270     6.9850 c3         1 G54      -0.045100
      5 C6           4.8090    -0.7080     3.3600 ca         1 G54      -0.056000
      6 C9           6.4670    -1.4000     5.2780 c3         1 G54       0.287500
      7 C13          1.3680     0.0000     0.0000 ca         1 G54       0.496800
      8 C8           6.6680    -0.7100     6.6440 c3         1 G54      -0.092400
      9 N5           7.6530    -2.0890     2.1030 n1         1 G54      -0.408800
     10 C16          0.5610     0.0010     2.1490 cc         1 G54      -0.182200
     11 C1           3.6480    -0.0120     3.0280 cp         1 G54      -0.149500
     12 C2           2.9510     0.6780     4.0180 ca         1 G54      -0.100000
     13 C3           3.4020     0.6510     5.3200 ca         1 G54      -0.128000
     14 C5           5.2550    -0.7280     4.6670 ca         1 G54      -0.107300
     15 C11          3.1580    -0.0050     1.6300 cp         1 G54       0.565800
     16 N1           4.0110    -0.0040     0.6070 nb         1 G54      -0.750000
     17 C12          3.5770    -0.0010    -0.6400 ca         1 G54       0.703900
     18 C14          1.7820     0.0000     1.3480 ca         1 G54      -0.341400
     19 C15         -0.4700     0.0060     1.2870 cd         1 G54      -0.102100
     20 N4           7.6430    -1.1960     4.4280 n7         1 G54      -0.704800
     21 C17          7.6540    -1.6730     3.1600 c1         1 G54       0.362600
     22 H1          -0.5880    -0.0010    -0.8100 hn         1 G54       0.306700
     23 H2           4.5700    -0.7340     7.6650 hc         1 G54       0.063200
     24 H3           5.5540     0.7420     7.3550 hc         1 G54       0.063200
     25 H4           5.3550    -1.2460     2.5950 ha         1 G54       0.160000
     26 H5           7.3990     0.0000     7.0120 hc         1 G54       0.062700
     27 H6           6.8410    -1.6890     7.0730 hc         1 G54       0.062700
     28 H7           0.5080     0.0010     3.2310 ha         1 G54       0.160000
     29 H8           2.0480     1.2210     3.7640 ha         1 G54       0.142000
     30 H9           2.8490     1.1800     6.0860 ha         1 G54       0.131000
     31 H10          5.3840    -3.0310     6.1640 hc         1 G54       0.050033
     32 H11          5.9500    -3.3410     4.5170 hc         1 G54       0.050033
     33 H12          7.0950    -3.3690     5.8660 hc         1 G54       0.050033
     34 H13          4.3240    -0.0010    -1.4250 h5         1 G54       0.064100
     35 H14         -1.5120     0.0080     1.5840 h4         1 G54       0.173000
     36 H15          8.4690    -1.2040     4.9940 hn         1 G54       0.433800
     37 C10          6.2050    -2.8940     5.4700 c3         1 G54      -0.115100
@<TRIPOS>BOND
     1    37     6 1
     2     8     6 1
     3     8     4 1
     4     6    20 1
     5     6    14 1
     6    20    21 1
     7    21     9 3
     8     4     2 1
     9    14     5 ar
    10    14     2 ar
    11     5    11 ar
    12     2    13 ar
    13    13    12 ar
    14    11    12 ar
    15    11    15 1
    16    10    19 2
    17    10    18 1
    18    19     1 1
    19    18    15 ar
    20    18     7 ar
    21    15    16 ar
    22     1     7 1
    23    16    17 ar
    24     7     3 ar
    25    17     3 ar
    26     1    22 1
    27     4    23 1
    28     4    24 1
    29     5    25 1
    30     8    26 1
    31     8    27 1
    32    10    28 1
    33    12    29 1
    34    13    30 1
    35    37    31 1
    36    37    32 1
    37    37    33 1
    38    17    34 1
    39    19    35 1
    40    20    36 1
@<TRIPOS>SUBSTRUCTURE
     1 G54         1 TEMP              0 ****  ****    0 ROOT
