@<TRIPOS>MOLECULE
molecule
   76    78     1     0     0
SMALL
bcc


@<TRIPOS>ATOM
      1 C2           0.0000     0.0000     0.0000 ca         1 G55       0.192100
      2 O39         -0.6810     0.0010    -1.1760 os         1 G55      -0.322900
      3 C40         -2.1070     0.0000    -1.1000 c3         1 G55       0.125700
      4 C3           1.3870     0.0000     0.0000 ca         1 G55      -0.215000
      5 C4           2.0780     0.0000     1.1970 ca         1 G55       0.004000
      6 C5           1.3860    -0.0020     2.3940 ca         1 G55      -0.358500
      7 C6           0.0030    -0.0020     2.3970 ca         1 G55       0.004000
      8 C7          -0.6910     0.0040     1.2030 ca         1 G55      -0.215000
      9 S8           2.2690    -0.0030     3.9200 sy         1 G55       1.423200
     10 O9           1.3880    -0.5480     4.8920 o          1 G55      -0.635300
     11 O10          3.5520    -0.5460     3.6400 o          1 G55      -0.635300
     12 N11          2.5140     1.5790     4.3450 n3         1 G55      -0.811500
     13 C12          1.5240     2.2770     5.1690 c3         1 G55       0.239800
     14 C13          1.9170     2.1640     6.6430 c3         1 G55      -0.096700
     15 C14          3.2300     2.9110     6.8810 c3         1 G55      -0.088600
     16 C15          0.8170     2.7780     7.5130 c3         1 G55      -0.088600
     17 C16          3.7200     2.2790     3.8980 c3         1 G55       0.220800
     18 C17          3.4200     3.0350     2.6030 c3         1 G55       0.105100
     19 O18          2.4610     4.0620     2.8600 oh         1 G55      -0.600800
     20 C19          4.7090     3.6640     2.0680 c3         1 G55       0.122700
     21 N20          4.4470     4.2850     0.7680 ns         1 G55      -0.569900
     22 C21          5.4520     4.4500    -0.1150 c          1 G55       0.744100
     23 O22          6.5750     4.0830     0.1680 o          1 G55      -0.591000
     24 O23          5.2110     5.0220    -1.3090 os         1 G55      -0.440900
     25 C24          6.3400     5.1660    -2.2110 c3         1 G55       0.132100
     26 C25          6.4430     3.9680    -3.0500 c3         1 G55       0.109400
     27 O26          7.5440     4.0560    -3.9760 os         1 G55      -0.410600
     28 C27          7.2410     4.8210    -5.1080 c3         1 G55       0.327200
     29 O28          7.6670     6.1950    -4.9880 os         1 G55      -0.446600
     30 C29          7.4600     6.8030    -3.6920 c3         1 G55       0.140400
     31 C30          6.1450     6.4360    -3.0660 c3         1 G55      -0.122400
     32 C32          5.2030     4.7260     3.0520 c3         1 G55      -0.047100
     33 C33          6.5860     6.3510     1.7420 ca         1 G55      -0.116500
     34 C34          7.8070     6.8380     1.3170 ca         1 G55      -0.121000
     35 C35          8.9780     6.2350     1.7390 ca         1 G55      -0.124000
     36 C36          8.9260     5.1450     2.5870 ca         1 G55      -0.121000
     37 C37          7.7040     4.6560     3.0110 ca         1 G55      -0.116500
     38 C38          6.5350     5.2600     2.5890 ca         1 G55      -0.072300
     39 H40         -2.4420     0.8920    -0.5830 h1         1 G55       0.046367
     40 H40A        -2.5220    -0.0140    -2.1000 h1         1 G55       0.046367
     41 H40B        -2.4390    -0.8770    -0.5580 h1         1 G55       0.046367
     42 H3           1.9290     0.0010    -0.9380 ha         1 G55       0.147000
     43 H4           3.1610     0.0000     1.1980 ha         1 G55       0.153000
     44 H6          -0.5360    -0.0010     3.3360 ha         1 G55       0.153000
     45 H7          -1.7750     0.0030     1.2060 ha         1 G55       0.147000
     46 H12          1.4890     3.3220     4.8830 h1         1 G55       0.059700
     47 H12A         0.5490     1.8290     5.0200 h1         1 G55       0.059700
     48 H13          2.0430     1.1210     6.9050 hc         1 G55       0.068700
     49 H14          3.2210     3.8420     6.3260 hc         1 G55       0.036033
     50 H14A         3.3400     3.1210     7.9380 hc         1 G55       0.036033
     51 H14B         4.0590     2.3000     6.5460 hc         1 G55       0.036033
     52 H15          0.5610     3.7590     7.1320 hc         1 G55       0.036033
     53 H15A        -0.0590     2.1410     7.4900 hc         1 G55       0.036033
     54 H15B         1.1710     2.8680     8.5330 hc         1 G55       0.036033
     55 H16          4.5110     1.5600     3.7210 h1         1 G55       0.083700
     56 H16A         4.0340     2.9810     4.6610 h1         1 G55       0.083700
     57 H17          3.0220     2.3470     1.8670 h1         1 G55       0.042700
     58 HO18         1.7880     4.0380     2.2000 ho         1 G55       0.403000
     59 H19          5.4650     2.8960     1.9560 h1         1 G55       0.091700
     60 HN20         3.5160     4.5590     0.5240 hn         1 G55       0.319500
     61 H24          7.2500     5.2690    -1.6320 h1         1 G55       0.093700
     62 H25          5.5220     3.8500    -3.6080 h1         1 G55       0.061700
     63 H25A         6.5880     3.1040    -2.4120 h1         1 G55       0.061700
     64 H27          6.1700     4.8010    -5.2640 h2         1 G55       0.052700
     65 H27A         7.7320     4.3790    -5.9670 h2         1 G55       0.052700
     66 H29          7.5010     7.8790    -3.8040 h1         1 G55       0.056200
     67 H29A         8.2580     6.4860    -3.0300 h1         1 G55       0.056200
     68 H30          5.8040     7.2480    -2.4360 hc         1 G55       0.064700
     69 H30A         5.4160     6.2400    -3.8430 hc         1 G55       0.064700
     70 H32          4.4860     5.5370     3.0980 hc         1 G55       0.060700
     71 H32A         5.3120     4.2850     4.0350 hc         1 G55       0.060700
     72 H34          7.8480     7.6930     0.6530 ha         1 G55       0.124500
     73 H35          9.9350     6.6180     1.4060 ha         1 G55       0.126000
     74 H36          9.8430     4.6720     2.9180 ha         1 G55       0.124500
     75 H37          7.6640     3.8010     3.6760 ha         1 G55       0.124000
     76 H33          5.6690     6.8230     1.4110 ha         1 G55       0.124000
@<TRIPOS>BOND
     1     1     2 1
     2     1     4 ar
     3     1     8 ar
     4     2     3 1
     5     4     5 ar
     6     5     6 ar
     7     6     7 ar
     8     6     9 1
     9     7     8 ar
    10     9    10 2
    11     9    11 2
    12     9    12 1
    13    12    13 1
    14    12    17 1
    15    13    14 1
    16    14    15 1
    17    14    16 1
    18    17    18 1
    19    18    19 1
    20    18    20 1
    21    20    21 1
    22    20    32 1
    23    21    22 1
    24    22    23 2
    25    22    24 1
    26    24    25 1
    27    25    26 1
    28    25    31 1
    29    26    27 1
    30    27    28 1
    31    28    29 1
    32    29    30 1
    33    30    31 1
    34    32    38 1
    35    33    34 ar
    36    33    38 ar
    37    34    35 ar
    38    35    36 ar
    39    36    37 ar
    40    37    38 ar
    41     3    39 1
    42     3    40 1
    43     3    41 1
    44     4    42 1
    45     5    43 1
    46     7    44 1
    47     8    45 1
    48    13    46 1
    49    13    47 1
    50    14    48 1
    51    15    49 1
    52    15    50 1
    53    15    51 1
    54    16    52 1
    55    16    53 1
    56    16    54 1
    57    17    55 1
    58    17    56 1
    59    18    57 1
    60    19    58 1
    61    20    59 1
    62    21    60 1
    63    25    61 1
    64    26    62 1
    65    26    63 1
    66    28    64 1
    67    28    65 1
    68    30    66 1
    69    30    67 1
    70    31    68 1
    71    31    69 1
    72    32    70 1
    73    32    71 1
    74    33    76 1
    75    34    72 1
    76    35    73 1
    77    36    74 1
    78    37    75 1
@<TRIPOS>SUBSTRUCTURE
     1 G55         1 TEMP              0 ****  ****    0 ROOT
