@<TRIPOS>MOLECULE
G55
   76    78     1     0     0
SMALL
bcc


@<TRIPOS>ATOM
      1 C2           0.0000     0.0000     0.0000 ca         1 G55       0.201100
      2 O39         -0.6810     0.0010    -1.1760 os         1 G55      -0.304900
      3 C40         -2.1070     0.0000    -1.1000 c3         1 G55       0.245700
      4 C3           1.3870     0.0000     0.0000 ca         1 G55      -0.210500
      5 C4           2.0780     0.0000     1.1970 ca         1 G55       0.043000
      6 C5           1.3860    -0.0020     2.3940 ca         1 G55      -0.208500
      7 C6           0.0030    -0.0020     2.3970 ca         1 G55       0.043000
      8 C7          -0.6910     0.0040     1.2030 ca         1 G55      -0.210500
      9 S8           2.2690    -0.0030     3.9200 sy         1 G55       1.050200
     10 O9           1.3880    -0.5480     4.8920 o          1 G55      -0.586800
     11 O10          3.5520    -0.5460     3.6400 o          1 G55      -0.586800
     12 N11          2.5140     1.5790     4.3450 n3         1 G55      -0.518500
     13 C12          1.5240     2.2770     5.1690 c3         1 G55       0.232800
     14 C13          1.9170     2.1640     6.6430 c3         1 G55      -0.080700
     15 C14          3.2300     2.9110     6.8810 c3         1 G55       0.003900
     16 C15          0.8170     2.7780     7.5130 c3         1 G55       0.003900
     17 C16          3.7200     2.2790     3.8980 c3         1 G55       0.189800
     18 C17          3.4200     3.0350     2.6030 c3         1 G55       0.144100
     19 O18          2.4610     4.0620     2.8600 oh         1 G55      -0.580800
     20 C19          4.7090     3.6640     2.0680 c3         1 G55       0.011700
     21 N20          4.4470     4.2850     0.7680 ns         1 G55      -0.167900
     22 C21          5.4520     4.4500    -0.1150 c          1 G55       0.674100
     23 O22          6.5750     4.0830     0.1680 o          1 G55      -0.639000
     24 O23          5.2110     5.0220    -1.3090 os         1 G55      -0.419900
     25 C24          6.3400     5.1660    -2.2110 c3         1 G55       0.155100
     26 C25          6.4430     3.9680    -3.0500 c3         1 G55       0.173400
     27 O26          7.5440     4.0560    -3.9760 os         1 G55      -0.399600
     28 C27          7.2410     4.8210    -5.1080 c3         1 G55       0.421200
     29 O28          7.6670     6.1950    -4.9880 os         1 G55      -0.439600
     30 C29          7.4600     6.8030    -3.6920 c3         1 G55       0.219400
     31 C30          6.1450     6.4360    -3.0660 c3         1 G55      -0.080400
     32 C32          5.2030     4.7260     3.0520 c3         1 G55       0.010900
     33 C33          6.5860     6.3510     1.7420 ca         1 G55      -0.092500
     34 C34          7.8070     6.8380     1.3170 ca         1 G55      -0.092000
     35 C35          8.9780     6.2350     1.7390 ca         1 G55      -0.097000
     36 C36          8.9260     5.1450     2.5870 ca         1 G55      -0.092000
     37 C37          7.7040     4.6560     3.0110 ca         1 G55      -0.092500
     38 C38          6.5350     5.2600     2.5890 ca         1 G55      -0.080300
     39 H40         -2.4420     0.8920    -0.5830 h1         1 G55       0.000700
     40 H40A        -2.5220    -0.0140    -2.1000 h1         1 G55       0.000700
     41 H40B        -2.4390    -0.8770    -0.5580 h1         1 G55       0.000700
     42 H3           1.9290     0.0010    -0.9380 ha         1 G55       0.126000
     43 H4           3.1610     0.0000     1.1980 ha         1 G55       0.123000
     44 H6          -0.5360    -0.0010     3.3360 ha         1 G55       0.123000
     45 H7          -1.7750     0.0030     1.2060 ha         1 G55       0.126000
     46 H12          1.4890     3.3220     4.8830 h1         1 G55       0.027200
     47 H12A         0.5490     1.8290     5.0200 h1         1 G55       0.027200
     48 H13          2.0430     1.1210     6.9050 hc         1 G55       0.048700
     49 H14          3.2210     3.8420     6.3260 hc         1 G55       0.004700
     50 H14A         3.3400     3.1210     7.9380 hc         1 G55       0.004700
     51 H14B         4.0590     2.3000     6.5460 hc         1 G55       0.004700
     52 H15          0.5610     3.7590     7.1320 hc         1 G55       0.004700
     53 H15A        -0.0590     2.1410     7.4900 hc         1 G55       0.004700
     54 H15B         1.1710     2.8680     8.5330 hc         1 G55       0.004700
     55 H16          4.5110     1.5600     3.7210 h1         1 G55       0.055700
     56 H16A         4.0340     2.9810     4.6610 h1         1 G55       0.055700
     57 H17          3.0220     2.3470     1.8670 h1         1 G55       0.010700
     58 HO18         1.7880     4.0380     2.2000 ho         1 G55       0.389000
     59 H19          5.4650     2.8960     1.9560 h1         1 G55       0.069700
     60 HN20         3.5160     4.5590     0.5240 hn         1 G55       0.170500
     61 H24          7.2500     5.2690    -1.6320 h1         1 G55       0.064700
     62 H25          5.5220     3.8500    -3.6080 h1         1 G55       0.022700
     63 H25A         6.5880     3.1040    -2.4120 h1         1 G55       0.022700
     64 H27          6.1700     4.8010    -5.2640 h2         1 G55       0.003200
     65 H27A         7.7320     4.3790    -5.9670 h2         1 G55       0.003200
     66 H29          7.5010     7.8790    -3.8040 h1         1 G55       0.015200
     67 H29A         8.2580     6.4860    -3.0300 h1         1 G55       0.015200
     68 H30          5.8040     7.2480    -2.4360 hc         1 G55       0.034700
     69 H30A         5.4160     6.2400    -3.8430 hc         1 G55       0.034700
     70 H32          4.4860     5.5370     3.0980 hc         1 G55       0.033200
     71 H32A         5.3120     4.2850     4.0350 hc         1 G55       0.033200
     72 H34          7.8480     7.6930     0.6530 ha         1 G55       0.098000
     73 H35          9.9350     6.6180     1.4060 ha         1 G55       0.099000
     74 H36          9.8430     4.6720     2.9180 ha         1 G55       0.098000
     75 H37          7.6640     3.8010     3.6760 ha         1 G55       0.099500
     76 H33          5.6690     6.8230     1.4110 ha         1 G55       0.099500
@<TRIPOS>BOND
     1     1     2 1   
     2     1     4 ar  
     3     1     8 ar  
     4     2     3 1   
     5     3    39 1   
     6     3    40 1   
     7     3    41 1   
     8     4     5 ar  
     9     4    42 1   
    10     5     6 ar  
    11     5    43 1   
    12     6     7 ar  
    13     6     9 1   
    14     7     8 ar  
    15     7    44 1   
    16     8    45 1   
    17     9    10 2   
    18     9    11 2   
    19     9    12 1   
    20    12    13 1   
    21    12    17 1   
    22    13    14 1   
    23    13    46 1   
    24    13    47 1   
    25    14    15 1   
    26    14    16 1   
    27    14    48 1   
    28    15    49 1   
    29    15    50 1   
    30    15    51 1   
    31    16    52 1   
    32    16    53 1   
    33    16    54 1   
    34    17    18 1   
    35    17    55 1   
    36    17    56 1   
    37    18    19 1   
    38    18    20 1   
    39    18    57 1   
    40    19    58 1   
    41    20    21 1   
    42    20    32 1   
    43    20    59 1   
    44    21    22 1   
    45    21    60 1   
    46    22    23 2   
    47    22    24 1   
    48    24    25 1   
    49    25    26 1   
    50    25    31 1   
    51    25    61 1   
    52    26    27 1   
    53    26    62 1   
    54    26    63 1   
    55    27    28 1   
    56    28    29 1   
    57    28    64 1   
    58    28    65 1   
    59    29    30 1   
    60    30    31 1   
    61    30    66 1   
    62    30    67 1   
    63    31    68 1   
    64    31    69 1   
    65    32    38 1   
    66    32    70 1   
    67    32    71 1   
    68    33    34 ar  
    69    33    38 ar  
    70    33    76 1   
    71    34    35 ar  
    72    34    72 1   
    73    35    36 ar  
    74    35    73 1   
    75    36    37 ar  
    76    36    74 1   
    77    37    38 ar  
    78    37    75 1   
@<TRIPOS>SUBSTRUCTURE
     1 G55         1 TEMP              0 ****  ****    0 ROOT
