@<TRIPOS>MOLECULE
G58
   59    62     1     0     0
SMALL
bcc


@<TRIPOS>ATOM
      1 C1           0.0000     0.0000     0.0000 c3         1 G58      -0.008400
      2 F1           3.6460     3.0180    -1.2130 f          1 G58      -0.117900
      3 N1           1.4660     0.0000     0.0000 na         1 G58       0.285100
      4 O1           5.4170    -1.3550    -1.7480 o          1 G58      -0.584300
      5 S1           5.0000    -0.0010    -1.6470 sy         1 G58       1.000800
      6 Cl1          7.8600     2.7750     1.6040 cl         1 G58      -0.008400
      7 C2           2.2670     0.0000     1.0870 cc         1 G58       0.214400
      8 N2           3.5100    -0.0000     0.6890 nd         1 G58      -0.563000
      9 O2           4.7100     0.8100    -2.7780 o          1 G58      -0.584300
     10 S2          13.2790    -4.3810    -4.9220 sy         1 G58       0.874300
     11 C3           3.5460    -0.0010    -0.6510 cd         1 G58       0.233200
     12 N3           6.1780     0.7900    -0.7940 n3         1 G58      -0.492500
     13 O3          11.9350    -4.6810    -5.2710 o          1 G58      -0.588800
     14 C4           2.2770    -0.0060    -1.1020 cc         1 G58      -0.297600
     15 O4          14.2570    -4.1290    -5.9220 o          1 G58      -0.588800
     16 C5           7.0590     0.0420     0.1060 c3         1 G58       0.273100
     17 C6           8.3290    -0.3190    -0.6200 ca         1 G58      -0.120300
     18 C7           9.4100     0.5430    -0.5860 ca         1 G58      -0.085500
     19 C8          10.5770     0.2170    -1.2480 ca         1 G58      -0.103000
     20 C9          10.6640    -0.9830    -1.9510 cp         1 G58      -0.037000
     21 C10          9.5710    -1.8480    -1.9810 ca         1 G58      -0.103000
     22 C11          8.4120    -1.5140    -1.3110 ca         1 G58      -0.085500
     23 C12         11.9150    -1.3380    -2.6660 cp         1 G58      -0.052000
     24 C13         13.0070    -0.4730    -2.6360 ca         1 G58      -0.054000
     25 C14         14.1680    -0.8100    -3.3020 ca         1 G58      -0.129000
     26 C15         14.2490    -2.0030    -3.9980 ca         1 G58      -0.004000
     27 C16         13.1670    -2.8640    -4.0320 ca         1 G58      -0.152500
     28 C17         12.0030    -2.5410    -3.3630 ca         1 G58      -0.002000
     29 C18         13.9040    -5.5740    -3.7070 c3         1 G58       0.028700
     30 C19          6.3400     2.2400    -0.9410 c3         1 G58       0.268100
     31 C20          5.5800     2.9430     0.1530 ca         1 G58      -0.143300
     32 C21          4.2560     3.3000    -0.0420 ca         1 G58       0.133900
     33 C22          3.5590     3.9460     0.9650 ca         1 G58      -0.137000
     34 C23          4.1840     4.2350     2.1630 ca         1 G58      -0.063000
     35 C24          5.5050     3.8790     2.3580 ca         1 G58      -0.111000
     36 C25          6.2020     3.2280     1.3550 ca         1 G58       0.002400
     37 H1          -0.3610     0.5110    -0.8840 h1         1 G58       0.026367
     38 H1A         -0.3610     0.5100     0.8850 h1         1 G58       0.026367
     39 H1B         -0.3610    -1.0210    -0.0010 h1         1 G58       0.026367
     40 H2           1.9330     0.0010     2.1180 h5         1 G58       0.026100
     41 H4           1.9650    -0.1940    -2.1220 h4         1 G58       0.164000
     42 H5           6.5590    -0.8620     0.4310 h1         1 G58       0.034200
     43 H5A          7.2970     0.6530     0.9680 h1         1 G58       0.034200
     44 H7           9.3420     1.4760    -0.0400 ha         1 G58       0.124000
     45 H8          11.4230     0.8930    -1.2220 ha         1 G58       0.111000
     46 H10          9.6330    -2.7830    -2.5240 ha         1 G58       0.111000
     47 H11          7.5620    -2.1860    -1.3340 ha         1 G58       0.124000
     48 H13         12.9450     0.4610    -2.0910 ha         1 G58       0.111000
     49 H14         15.0180    -0.1380    -3.2790 ha         1 G58       0.107000
     50 H15         15.1620    -2.2630    -4.5200 ha         1 G58       0.121000
     51 H17         11.1370    -3.1870    -3.4400 ha         1 G58       0.135000
     52 H18         13.8990    -6.5670    -4.1400 h1         1 G58       0.059367
     53 H18A        14.9160    -5.3070    -3.4260 h1         1 G58       0.059367
     54 H18B        13.2700    -5.5600    -2.8280 h1         1 G58       0.059367
     55 H19          7.3910     2.4940    -0.8720 h1         1 G58       0.048200
     56 H19A         5.9560     2.5500    -1.9050 h1         1 G58       0.048200
     57 H22          2.5230     4.2250     0.8130 ha         1 G58       0.117000
     58 H23          3.6380     4.7420     2.9500 ha         1 G58       0.108000
     59 H24          5.9940     4.1060     3.2980 ha         1 G58       0.118000
@<TRIPOS>BOND
     1     1     3 1   
     2     1    37 1   
     3     1    38 1   
     4     1    39 1   
     5     2    32 1   
     6     3     7 1   
     7     3    14 1   
     8     4     5 2   
     9     5     9 2   
    10     5    11 1   
    11     5    12 1   
    12     6    36 1   
    13     7     8 2   
    14     7    40 1   
    15     8    11 1   
    16    10    13 2   
    17    10    15 2   
    18    10    27 1   
    19    10    29 1   
    20    11    14 2   
    21    12    16 1   
    22    12    30 1   
    23    14    41 1   
    24    16    17 1   
    25    16    42 1   
    26    16    43 1   
    27    17    18 ar  
    28    17    22 ar  
    29    18    19 ar  
    30    18    44 1   
    31    19    20 ar  
    32    19    45 1   
    33    20    21 ar  
    34    20    23 1   
    35    21    22 ar  
    36    21    46 1   
    37    22    47 1   
    38    23    24 ar  
    39    23    28 ar  
    40    24    25 ar  
    41    24    48 1   
    42    25    26 ar  
    43    25    49 1   
    44    26    27 ar  
    45    26    50 1   
    46    27    28 ar  
    47    28    51 1   
    48    29    52 1   
    49    29    53 1   
    50    29    54 1   
    51    30    31 1   
    52    30    55 1   
    53    30    56 1   
    54    31    32 ar  
    55    31    36 ar  
    56    32    33 ar  
    57    33    34 ar  
    58    33    57 1   
    59    34    35 ar  
    60    34    58 1   
    61    35    36 ar  
    62    35    59 1   
@<TRIPOS>SUBSTRUCTURE
     1 G58         1 TEMP              0 ****  ****    0 ROOT
