@<TRIPOS>MOLECULE
molecule
   54    57     1     0     0
SMALL
bcc


@<TRIPOS>ATOM
      1 O22          0.0000     0.0000     0.0000 o          1 G59      -0.636100
      2 C20          1.2160     0.0000     0.0000 c          1 G59       0.717700
      3 N21          1.8910     0.0000     1.1660 ns         1 G59      -0.584900
      4 C23          1.1590     0.0000     2.4360 c3         1 G59       0.165300
      5 C24          2.1380     0.0010     3.5810 ca         1 G59      -0.133300
      6 C25          2.5880     1.1980     4.1060 ca         1 G59      -0.087500
      7 C26          3.4860     1.1990     5.1560 ca         1 G59      -0.171000
      8 C29          2.5830    -1.1970     4.1090 ca         1 G59      -0.087500
      9 C28          3.4780    -1.1980     5.1630 ca         1 G59      -0.171000
     10 C27          3.9360     0.0010     5.6820 ca         1 G59       0.139900
     11 F30          4.8100     0.0010     6.7120 f          1 G59      -0.139900
     12 C17          1.9490    -0.0060    -1.2720 cc         1 G59      -0.425900
     13 C5           1.3960    -0.0120    -2.5460 cd         1 G59       0.181300
     14 N4           2.4230    -0.0160    -3.4250 na         1 G59       0.048400
     15 N19          3.6200    -0.0110    -2.7110 nd         1 G59      -0.513800
     16 C18          3.3570     0.0000    -1.4340 cc         1 G59       0.368200
     17 N6           0.0590    -0.0150    -2.8820 nu         1 G59      -0.644600
     18 C1          -0.1270    -0.4490    -4.2740 c3         1 G59       0.204800
     19 C2           0.7990     0.3570    -5.1910 c3         1 G59      -0.095400
     20 C3           2.2540    -0.0240    -4.8850 c3         1 G59       0.077000
     21 C13          3.2020     0.9970    -5.5200 c3         1 G59      -0.098100
     22 C7          -1.5600    -0.2220    -4.6830 ca         1 G59      -0.105300
     23 C8          -2.2180     0.9270    -4.2870 ca         1 G59      -0.105500
     24 C9          -3.5330     1.1350    -4.6630 ca         1 G59      -0.129000
     25 C10         -4.1880     0.1940    -5.4340 ca         1 G59      -0.072300
     26 C32         -5.6200     0.4190    -5.8430 c3         1 G59      -0.040100
     27 C33         -5.6580     1.1650    -7.1780 c3         1 G59      -0.087100
     28 C11         -3.5290    -0.9560    -5.8310 ca         1 G59      -0.129000
     29 C12         -2.2130    -1.1610    -5.4590 ca         1 G59      -0.105500
     30 HN21         2.8910    -0.0230     1.1660 hn         1 G59       0.315500
     31 H231         0.5360     0.8850     2.4940 h1         1 G59       0.059200
     32 H232         0.5360    -0.8840     2.4940 h1         1 G59       0.059200
     33 H25          2.2360     2.1360     3.6930 ha         1 G59       0.142500
     34 H26          3.8410     2.1370     5.5640 ha         1 G59       0.147000
     35 H29          2.2240    -2.1350     3.7030 ha         1 G59       0.142500
     36 H28          3.8280    -2.1360     5.5760 ha         1 G59       0.147000
     37 H18          4.0890     0.0120    -0.6350 h4         1 G59       0.045100
     38 HN6         -0.4370    -0.6320    -2.2700 hn         1 G59       0.425800
     39 H49          0.1140    -1.5010    -4.3570 h1         1 G59       0.042700
     40 H21          0.5840     0.0810    -6.2170 hc         1 G59       0.077700
     41 H22          0.6680     1.4090    -4.9660 hc         1 G59       0.077700
     42 H3           2.4610    -1.0140    -5.2710 h1         1 G59       0.066700
     43 H133         2.9620     1.1070    -6.5710 hc         1 G59       0.052700
     44 H131         3.0900     1.9520    -5.0220 hc         1 G59       0.052700
     45 H132         4.2240     0.6530    -5.4170 hc         1 G59       0.052700
     46 H8          -1.7050     1.6650    -3.6820 ha         1 G59       0.139500
     47 H9          -4.0490     2.0350    -4.3520 ha         1 G59       0.133500
     48 H321        -6.1240     1.0080    -5.0850 hc         1 G59       0.048700
     49 H322        -6.1200    -0.5360    -5.9490 hc         1 G59       0.048700
     50 H332        -5.1700     2.1260    -7.0680 hc         1 G59       0.036367
     51 H333        -6.6880     1.3160    -7.4780 hc         1 G59       0.036367
     52 H331        -5.1430     0.5820    -7.9320 hc         1 G59       0.036367
     53 H11         -4.0410    -1.6930    -6.4370 ha         1 G59       0.133500
     54 H12         -1.6970    -2.0610    -5.7700 ha         1 G59       0.139500
@<TRIPOS>BOND
     1     9     8 ar
     2     9    10 ar
     3    11    10 1
     4     8     5 ar
     5    10     7 ar
     6     7     6 ar
     7     5     6 ar
     8     5     4 1
     9     4     3 1
    10     3     2 1
    11     2     1 2
    12     2    12 1
    13    16    12 1
    14    16    15 2
    15    12    13 2
    16    15    14 1
    17    13    14 1
    18    13    17 1
    19    14    20 1
    20    17    18 1
    21    20    21 1
    22    20    19 1
    23    18    19 1
    24    18    22 1
    25    23    22 ar
    26    23    24 ar
    27    22    29 ar
    28    24    25 ar
    29    29    28 ar
    30    25    28 ar
    31    25    26 1
    32    27    26 1
    33     3    30 1
    34     4    31 1
    35     4    32 1
    36     6    33 1
    37     7    34 1
    38     8    35 1
    39     9    36 1
    40    16    37 1
    41    17    38 1
    42    18    39 1
    43    19    40 1
    44    19    41 1
    45    20    42 1
    46    21    43 1
    47    21    44 1
    48    21    45 1
    49    23    46 1
    50    24    47 1
    51    26    48 1
    52    26    49 1
    53    27    50 1
    54    27    51 1
    55    27    52 1
    56    28    53 1
    57    29    54 1
@<TRIPOS>SUBSTRUCTURE
     1 G59         1 TEMP              0 ****  ****    0 ROOT
