@<TRIPOS>MOLECULE
G59
   54    57     1     0     0
SMALL
bcc


@<TRIPOS>ATOM
      1 O22          0.0000     0.0000     0.0000 o          1 G59      -0.678100
      2 C20          1.2160     0.0000     0.0000 c          1 G59       0.651700
      3 N21          1.8910     0.0000     1.1660 ns         1 G59      -0.201900
      4 C23          1.1590     0.0000     2.4360 c3         1 G59       0.115300
      5 C24          2.1380     0.0010     3.5810 ca         1 G59      -0.138300
      6 C25          2.5880     1.1980     4.1060 ca         1 G59      -0.058000
      7 C26          3.4860     1.1990     5.1560 ca         1 G59      -0.135000
      8 C29          2.5830    -1.1970     4.1090 ca         1 G59      -0.058000
      9 C28          3.4780    -1.1980     5.1630 ca         1 G59      -0.135000
     10 C27          3.9360     0.0010     5.6820 ca         1 G59       0.111900
     11 F30          4.8100     0.0010     6.7120 f          1 G59      -0.127900
     12 C17          1.9490    -0.0060    -1.2720 cc         1 G59      -0.449900
     13 C5           1.3960    -0.0120    -2.5460 cd         1 G59      -0.055700
     14 N4           2.4230    -0.0160    -3.4250 na         1 G59       0.464400
     15 N19          3.6200    -0.0110    -2.7110 nd         1 G59      -0.650800
     16 C18          3.3570     0.0000    -1.4340 cc         1 G59       0.431200
     17 N6           0.0590    -0.0150    -2.8820 nu         1 G59      -0.341600
     18 C1          -0.1270    -0.4490    -4.2740 c3         1 G59       0.149800
     19 C2           0.7990     0.3570    -5.1910 c3         1 G59      -0.044400
     20 C3           2.2540    -0.0240    -4.8850 c3         1 G59      -0.034000
     21 C13          3.2020     0.9970    -5.5200 c3         1 G59      -0.001100
     22 C7          -1.5600    -0.2220    -4.6830 ca         1 G59      -0.115300
     23 C8          -2.2180     0.9270    -4.2870 ca         1 G59      -0.080500
     24 C9          -3.5330     1.1350    -4.6630 ca         1 G59      -0.098500
     25 C10         -4.1880     0.1940    -5.4340 ca         1 G59      -0.080300
     26 C32         -5.6200     0.4190    -5.8430 c3         1 G59       0.028900
     27 C33         -5.6580     1.1650    -7.1780 c3         1 G59       0.009900
     28 C11         -3.5290    -0.9560    -5.8310 ca         1 G59      -0.098500
     29 C12         -2.2130    -1.1610    -5.4590 ca         1 G59      -0.080500
     30 HN21         2.8910    -0.0230     1.1660 hn         1 G59       0.178500
     31 H231         0.5360     0.8850     2.4940 h1         1 G59       0.029200
     32 H232         0.5360    -0.8840     2.4940 h1         1 G59       0.029200
     33 H25          2.2360     2.1360     3.6930 ha         1 G59       0.112500
     34 H26          3.8410     2.1370     5.5640 ha         1 G59       0.121000
     35 H29          2.2240    -2.1350     3.7030 ha         1 G59       0.112500
     36 H28          3.8280    -2.1360     5.5760 ha         1 G59       0.121000
     37 H18          4.0890     0.0120    -0.6350 h4         1 G59       0.000100
     38 HN6         -0.4370    -0.6320    -2.2700 hn         1 G59       0.303800
     39 H49          0.1140    -1.5010    -4.3570 h1         1 G59       0.020700
     40 H21          0.5840     0.0810    -6.2170 hc         1 G59       0.046200
     41 H22          0.6680     1.4090    -4.9660 hc         1 G59       0.046200
     42 H3           2.4610    -1.0140    -5.2710 h1         1 G59       0.039700
     43 H133         2.9620     1.1070    -6.5710 hc         1 G59       0.018700
     44 H131         3.0900     1.9520    -5.0220 hc         1 G59       0.018700
     45 H132         4.2240     0.6530    -5.4170 hc         1 G59       0.018700
     46 H8          -1.7050     1.6650    -3.6820 ha         1 G59       0.112500
     47 H9          -4.0490     2.0350    -4.3520 ha         1 G59       0.108000
     48 H321        -6.1240     1.0080    -5.0850 hc         1 G59       0.017200
     49 H322        -6.1200    -0.5360    -5.9490 hc         1 G59       0.017200
     50 H332        -5.1700     2.1260    -7.0680 hc         1 G59       0.002367
     51 H333        -6.6880     1.3160    -7.4780 hc         1 G59       0.002367
     52 H331        -5.1430     0.5820    -7.9320 hc         1 G59       0.002367
     53 H11         -4.0410    -1.6930    -6.4370 ha         1 G59       0.108000
     54 H12         -1.6970    -2.0610    -5.7700 ha         1 G59       0.112500
@<TRIPOS>BOND
     1     1     2 2   
     2     2     3 1   
     3     2    12 1   
     4     3     4 1   
     5     3    30 1   
     6     4     5 1   
     7     4    31 1   
     8     4    32 1   
     9     5     6 ar  
    10     5     8 ar  
    11     6     7 ar  
    12     6    33 1   
    13     7    10 ar  
    14     7    34 1   
    15     8     9 ar  
    16     8    35 1   
    17     9    10 ar  
    18     9    36 1   
    19    10    11 1   
    20    12    13 2   
    21    12    16 1   
    22    13    14 1   
    23    13    17 1   
    24    14    15 1   
    25    14    20 1   
    26    15    16 2   
    27    16    37 1   
    28    17    18 1   
    29    17    38 1   
    30    18    19 1   
    31    18    22 1   
    32    18    39 1   
    33    19    20 1   
    34    19    40 1   
    35    19    41 1   
    36    20    21 1   
    37    20    42 1   
    38    21    43 1   
    39    21    44 1   
    40    21    45 1   
    41    22    23 ar  
    42    22    29 ar  
    43    23    24 ar  
    44    23    46 1   
    45    24    25 ar  
    46    24    47 1   
    47    25    26 1   
    48    25    28 ar  
    49    26    27 1   
    50    26    48 1   
    51    26    49 1   
    52    27    50 1   
    53    27    51 1   
    54    27    52 1   
    55    28    29 ar  
    56    28    53 1   
    57    29    54 1   
@<TRIPOS>SUBSTRUCTURE
     1 G59         1 TEMP              0 ****  ****    0 ROOT
