@<TRIPOS>MOLECULE
G5A
   45    47     1     0     0
SMALL
bcc


@<TRIPOS>ATOM
      1 C            0.0000     0.0000     0.0000 c          1 G5A       0.641100
      2 N            0.2000    -0.0050     2.4220 nz         1 G5A       0.112400
      3 O            1.2120     0.0000     0.0000 o          1 G5A      -0.572100
      4 S            0.1540     0.0110    -2.6010 s6         1 G5A       1.367100
      5 N1           2.6090    -9.2240     1.7360 nb         1 G5A      -0.642000
      6 C2           2.7500    -9.2280     0.4230 ca         1 G5A       0.654900
      7 N3           2.4330    -8.1920    -0.3240 nb         1 G5A      -0.603000
      8 C4           1.9510    -7.0820     0.2260 ca         1 G5A       0.243800
      9 C5           1.7820    -7.0280     1.6190 ca         1 G5A      -0.192200
     10 C6           2.1340    -8.1600     2.3750 ca         1 G5A       0.605200
     11 N6           1.9910    -8.1660     3.7510 nv         1 G5A      -0.646500
     12 N7           1.2830    -5.8040     1.9150 nc         1 G5A      -0.496100
     13 C8           1.1370    -5.1190     0.8170 cd         1 G5A       0.240700
     14 N9           1.5360    -5.8650    -0.2520 na         1 G5A       0.205000
     15 CA          -0.7540     0.0000     1.3050 c3         1 G5A      -0.138200
     16 C1'          1.5240    -5.4420    -1.6560 c3         1 G5A       0.157800
     17 O1S         -0.8260    -0.0200    -3.6300 o          1 G5A      -0.550300
     18 C2'          0.2230    -5.9110    -2.3550 c3         1 G5A       0.131100
     19 O2'          0.3660    -7.2400    -2.8590 oh         1 G5A      -0.526800
     20 O2S          1.1350     1.0330    -2.4930 o          1 G5A      -0.550300
     21 C3'          0.0940    -4.8920    -3.5140 c3         1 G5A       0.133100
     22 O3'          0.6090    -5.4450    -4.7260 oh         1 G5A      -0.538800
     23 N3S         -0.6750     0.0040    -1.1670 ns         1 G5A      -0.318300
     24 C4'          0.9500    -3.6940    -3.0600 c3         1 G5A       0.151100
     25 O4'          1.4600    -4.0030    -1.7530 os         1 G5A      -0.410600
     26 C5'          0.0870    -2.4320    -2.9970 c3         1 G5A       0.246400
     27 O5'          0.9120    -1.3060    -2.6900 os         1 G5A      -0.430500
     28 HN          -0.3000    -0.0400     3.2880 hn         1 G5A       0.231467
     29 HNA          0.7960    -0.8050     2.3480 hn         1 G5A       0.231467
     30 HN6          2.7470    -7.8680     4.3350 hn         1 G5A       0.285300
     31 HN6A         1.1360    -8.4840     4.1640 hn         1 G5A       0.285300
     32 HA          -1.3790    -0.8830     1.3610 hx         1 G5A       0.096700
     33 HAA         -1.3740     0.8860     1.3640 hx         1 G5A       0.096700
     34 H1'          2.3940    -5.8190    -2.1810 h2         1 G5A       0.083700
     35 H2'         -0.6220    -5.8350    -1.6820 h1         1 G5A       0.014700
     36 HO2'        -0.4710    -7.6740    -2.8410 ho         1 G5A       0.397000
     37 HN3S        -1.6740     0.0530    -1.1670 hn         1 G5A       0.244500
     38 H4'          1.7730    -3.5490    -3.7500 h1         1 G5A       0.069700
     39 H5'         -0.3950    -2.2760    -3.9550 h1         1 G5A       0.017200
     40 H5'A        -0.6670    -2.5480    -2.2280 h1         1 G5A       0.017200
     41 H16         -0.9390    -4.5910    -3.6370 h1         1 G5A       0.009700
     42 H17         -0.0460    -5.3870    -5.4010 ho         1 G5A       0.400000
     43 H2           3.1400   -10.1170    -0.0570 h5         1 G5A       0.008100
     44 HN3          0.7520     0.8290     2.3920 hn         1 G5A       0.231467
     45 H8           0.7570    -4.1060     0.7620 h5         1 G5A       0.007800
@<TRIPOS>BOND
     1     1     3 2   
     2     1    15 1   
     3     1    23 1   
     4     2    15 1   
     5     2    28 1   
     6     2    29 1   
     7     2    44 1   
     8     4    17 2   
     9     4    20 2   
    10     4    23 1   
    11     4    27 1   
    12     5     6 ar  
    13     5    10 ar  
    14     6     7 ar  
    15     6    43 1   
    16     7     8 ar  
    17     8     9 ar  
    18     8    14 1   
    19     9    10 ar  
    20     9    12 1   
    21    10    11 1   
    22    11    30 1   
    23    11    31 1   
    24    12    13 2   
    25    13    14 1   
    26    13    45 1   
    27    14    16 1   
    28    15    32 1   
    29    15    33 1   
    30    16    18 1   
    31    16    25 1   
    32    16    34 1   
    33    18    19 1   
    34    18    21 1   
    35    18    35 1   
    36    19    36 1   
    37    21    22 1   
    38    21    24 1   
    39    21    41 1   
    40    22    42 1   
    41    23    37 1   
    42    24    25 1   
    43    24    26 1   
    44    24    38 1   
    45    26    27 1   
    46    26    39 1   
    47    26    40 1   
@<TRIPOS>SUBSTRUCTURE
     1 G5A         1 TEMP              0 ****  ****    0 ROOT
