@<TRIPOS>MOLECULE
G5D
   53    56     1     0     0
SMALL
bcc


@<TRIPOS>ATOM
      1 N3           0.0000     0.0000     0.0000 nh         1 G5D      -0.478300
      2 C4          -2.3240    -0.3630    -2.8060 ca         1 G5D       0.498200
      3 N2          -1.4430    -0.4900    -3.7870 nb         1 G5D      -0.697000
      4 C7           1.8760     0.0000     1.5130 c3         1 G5D       0.036000
      5 C6           0.9280     2.0690     0.8330 c3         1 G5D       0.038700
      6 C9           0.2750    -0.6470    -5.9030 ca         1 G5D       0.011600
      7 C13         -1.3240     0.0340    -7.5560 ca         1 G5D      -0.047000
      8 C20         -1.0510    -1.6440   -12.1790 c3         1 G5D      -0.048000
      9 C21         -0.1640    -2.5770   -13.0060 c3         1 G5D       0.018900
     10 C8           1.4970     0.0000     0.0000 c3         1 G5D       0.122500
     11 C16          1.7970     1.5020    -0.3460 c3         1 G5D      -0.085400
     12 C19          2.4150     1.7280     5.5660 c1         1 G5D       0.199700
     13 C1          -0.1410    -0.4580    -3.5410 ca         1 G5D       0.705900
     14 N1           0.3310    -0.2990    -2.3140 nb         1 G5D      -0.712000
     15 C2          -0.4970    -0.1660    -1.2830 ca         1 G5D       0.557200
     16 C3          -1.8750    -0.1900    -1.5120 ca         1 G5D      -0.407600
     17 C5          -0.4080     1.3100     0.5630 c3         1 G5D       0.124800
     18 N4           1.5240     1.3520     1.9980 n          1 G5D      -0.166800
     19 C10          0.9250    -1.4380    -6.8460 ca         1 G5D      -0.110500
     20 C11          0.4570    -1.4960    -8.1390 ca         1 G5D      -0.047000
     21 C12         -0.6740    -0.7600    -8.5050 ca         1 G5D      -0.165600
     22 C14         -0.8500     0.0880    -6.2650 ca         1 G5D      -0.110500
     23 C15         -1.1780    -0.8190    -9.8900 c          1 G5D       0.592700
     24 O1          -2.1610    -0.1780   -10.2070 o          1 G5D      -0.625100
     25 N6          -0.5490    -1.5850   -10.8040 ns         1 G5D      -0.189900
     26 C17          1.7060     1.8380     3.2420 c          1 G5D       0.599100
     27 O2           1.3680     2.9730     3.5040 o          1 G5D      -0.625100
     28 N7           2.4630     2.3130     6.5390 n1         1 G5D      -0.360800
     29 H2          -3.3850    -0.3920    -3.0240 h4         1 G5D      -0.013900
     30 H6           1.5590    -0.9330     1.9630 h1         1 G5D       0.025700
     31 H7           2.9500     0.1000     1.6140 h1         1 G5D       0.025700
     32 H5           0.8660     3.1480     0.9060 h1         1 G5D       0.083700
     33 H12         -2.2000     0.6060    -7.8370 ha         1 G5D       0.120000
     34 H19         -1.6520    -1.0340   -12.8430 h1         1 G5D       0.060700
     35 H20         -1.7000    -2.2330   -11.5430 h1         1 G5D       0.060700
     36 H23          0.8490    -2.1940   -13.0200 hc         1 G5D       0.004700
     37 H21         -0.1690    -3.5660   -12.5640 hc         1 G5D       0.004700
     38 H22         -0.5430    -2.6320   -14.0190 hc         1 G5D       0.004700
     39 H8           1.9840    -0.7410    -0.6220 h1         1 G5D       0.090700
     40 H9           1.4420     0.0810    -4.3410 hn         1 G5D       0.278800
     41 H18          3.3210     0.6730     3.9960 hc         1 G5D       0.041700
     42 H17          1.7170     0.0900     4.4580 hc         1 G5D       0.041700
     43 H15          2.8380     1.7970    -0.2860 hc         1 G5D       0.047700
     44 H16          1.3470     1.6620    -1.3190 hc         1 G5D       0.047700
     45 H1          -2.5850    -0.0850    -0.7010 ha         1 G5D       0.136000
     46 H4          -1.0020     1.8450    -0.1690 h1         1 G5D       0.036200
     47 H3          -1.0000     1.1480     1.4550 h1         1 G5D       0.036200
     48 H10          1.8010    -2.0090    -6.5630 ha         1 G5D       0.124000
     49 H11          0.9640    -2.1120    -8.8710 ha         1 G5D       0.120000
     50 H13         -1.3550     0.7030    -5.5290 ha         1 G5D       0.124000
     51 H14          0.3840    -1.2730   -10.6240 hn         1 G5D       0.139500
     52 N5           0.7480    -0.5940    -4.5950 nu         1 G5D      -0.317300
     53 C18          2.3280     0.9710     4.3070 c3         1 G5D       0.047700
@<TRIPOS>BOND
     1     1    10 1   
     2     1    15 1   
     3     1    17 1   
     4     2     3 ar  
     5     2    16 ar  
     6     2    29 1   
     7     3    13 ar  
     8     4    10 1   
     9     4    18 1   
    10     4    30 1   
    11     4    31 1   
    12     5    11 1   
    13     5    17 1   
    14     5    18 1   
    15     5    32 1   
    16     6    19 ar  
    17     6    22 ar  
    18     6    52 1   
    19     7    21 ar  
    20     7    22 ar  
    21     7    33 1   
    22     8     9 1   
    23     8    25 1   
    24     8    34 1   
    25     8    35 1   
    26     9    36 1   
    27     9    37 1   
    28     9    38 1   
    29    10    11 1   
    30    10    39 1   
    31    11    43 1   
    32    11    44 1   
    33    12    28 3   
    34    12    53 1   
    35    13    14 ar  
    36    13    52 1   
    37    14    15 ar  
    38    15    16 ar  
    39    16    45 1   
    40    17    46 1   
    41    17    47 1   
    42    18    26 1   
    43    19    20 ar  
    44    19    48 1   
    45    20    21 ar  
    46    20    49 1   
    47    21    23 1   
    48    22    50 1   
    49    23    24 2   
    50    23    25 1   
    51    25    51 1   
    52    26    27 2   
    53    26    53 1   
    54    40    52 1   
    55    41    53 1   
    56    42    53 1   
@<TRIPOS>SUBSTRUCTURE
     1 G5D         1 TEMP              0 ****  ****    0 ROOT
