@<TRIPOS>MOLECULE
molecule
   49    51     1     0     0
SMALL
bcc


@<TRIPOS>ATOM
      1 C2           0.0000     0.0000     0.0000 cc         1 G5J       0.605100
      2 N2          -0.6580     0.0050    -1.2010 nz         1 G5J      -0.734600
      3 C4          -0.1100     0.0000     2.3680 cc         1 G5J      -0.009000
      4 C5           1.2790     0.0000     2.4150 cd         1 G5J       0.238800
      5 C6           2.0140     0.0000     1.1460 c          1 G5J       0.639000
      6 O6           3.2360     0.0000     1.1330 o          1 G5J      -0.534100
      7 O2'         -3.2140    -1.8040     3.0710 oh         1 G5J      -0.599800
      8 O3'         -4.7150    -1.7450     5.1260 oh         1 G5J      -0.581800
      9 O4'         -2.0290     0.5400     5.4460 os         1 G5J      -0.355600
     10 O5'         -3.2530     1.4720     7.9190 os         1 G5J      -0.592200
     11 C1'         -1.9320    -0.0010     4.1100 c3         1 G5J       0.233800
     12 C2'         -2.4590    -1.4480     4.2310 c3         1 G5J       0.072100
     13 C3'         -3.3710    -1.4110     5.4790 c3         1 G5J       0.090100
     14 C3G         -1.2860     9.8250    10.1280 c3         1 G5J       0.227700
     15 C4'         -3.2860     0.0530     5.9630 c3         1 G5J       0.119100
     16 C5'         -3.2900     0.1090     7.4920 c3         1 G5J       0.241400
     17 C8           0.5680    -0.0000     4.4590 cc         1 G5J       0.467400
     18 N1           1.3160     0.0000     0.0000 nd         1 G5J      -0.739100
     19 N3          -0.7300    -0.0010     1.1460 na         1 G5J      -0.670600
     20 N7           1.6390     0.0000     3.7200 nd         1 G5J      -0.633000
     21 N9          -0.5380    -0.0000     3.6600 na         1 G5J      -0.189900
     22 O1A         -4.6390     1.4700    10.1540 o          1 G5J      -0.827000
     23 O1B         -3.7670     4.6410    11.8450 o          1 G5J      -0.658000
     24 O1G         -1.5970     7.4020    12.0770 o          1 G5J      -0.819000
     25 O2A         -2.1250     1.2350    10.1640 o          1 G5J      -0.827000
     26 O2B         -1.3810     3.9470    11.4000 o          1 G5J      -0.658000
     27 O2G          0.1650     6.8910    10.3440 o          1 G5J      -0.819000
     28 O3A         -3.0710     3.5020     9.5810 os         1 G5J      -0.724800
     29 O3B         -2.2600     5.9420    10.1280 os         1 G5J      -0.727800
     30 O3G         -1.8240     8.5340     9.8330 os         1 G5J      -0.616200
     31 PA          -3.2470     1.9050     9.4700 p5         1 G5J       1.427800
     32 PB          -2.5930     4.4960    10.7530 p5         1 G5J       1.573800
     33 PG          -1.3900     7.2020    10.6260 p5         1 G5J       1.449800
     34 H1          -1.2130    -0.8240    -1.2810 hn         1 G5J       0.402800
     35 H2           0.0090     0.0340    -1.9460 hn         1 G5J       0.402800
     36 H3          -3.0950    -2.7220     2.8880 ho         1 G5J       0.400000
     37 H4          -4.9780    -2.5240     5.5890 ho         1 G5J       0.401000
     38 H5          -2.5530     0.5690     3.4300 h2         1 G5J       0.076700
     39 H6          -1.6380    -2.1370     4.3840 h1         1 G5J       0.055700
     40 H7          -2.9940    -2.0830     6.2400 h1         1 G5J       0.061700
     41 H8          -1.5670    10.5210     9.3470 h1         1 G5J       0.003033
     42 H9          -0.2060     9.7620    10.1830 h1         1 G5J       0.003033
     43 H10         -1.6760    10.1700    11.0780 h1         1 G5J       0.003033
     44 H11         -4.1080     0.6310     5.5570 h1         1 G5J       0.083700
     45 H12         -2.4210    -0.4130     7.8750 h1         1 G5J       0.041700
     46 H13         -4.1900    -0.3630     7.8680 h1         1 G5J       0.041700
     47 H14          0.5560    -0.0000     5.5420 h5         1 G5J       0.115100
     48 H15         -1.7300    -0.0030     1.0970 hn         1 G5J       0.435800
     49 H23         -1.2510     0.8100    -1.2520 hn         1 G5J       0.402800
@<TRIPOS>BOND
     1     2     1 1
     2     1    18 2
     3     1    19 1
     4    18     5 1
     5    19     3 1
     6     5     6 2
     7     5     4 1
     8     3     4 2
     9     3    21 1
    10     7    12 1
    11     4    20 1
    12    12    11 1
    13    12    13 1
    14    21    11 1
    15    21    17 1
    16    11     9 1
    17    20    17 2
    18     8    13 1
    19    13    15 1
    20     9    15 1
    21    15    16 1
    22    10    16 1
    23    10    31 1
    24    26    32 1
    25    25    31 1
    26    31    22 1
    27    31    28 1
    28    32    28 1
    29    32    23 1
    30    32    29 1
    31    29    33 1
    32    33    24 1
    33    33    27 1
    34    33    30 1
    35    30    14 1
    36     2    34 1
    37     2    35 1
    38     7    36 1
    39     8    37 1
    40    11    38 1
    41    12    39 1
    42    13    40 1
    43    14    41 1
    44    14    42 1
    45    14    43 1
    46    15    44 1
    47    16    45 1
    48    16    46 1
    49    17    47 1
    50    19    48 1
    51    49     2 1
@<TRIPOS>SUBSTRUCTURE
     1 G5J         1 TEMP              0 ****  ****    0 ROOT
