@<TRIPOS>MOLECULE
G5K
   59    63     1     0     0
SMALL
bcc


@<TRIPOS>ATOM
      1 C1           0.0000     0.0000     0.0000 c2         1 G5K      -0.059000
      2 C2           1.3300     0.0000     0.0000 ce         1 G5K      -0.243200
      3 C3           2.0650     0.0000     1.2750 c          1 G5K       0.615300
      4 O4           1.4560    -0.0010     2.3280 o          1 G5K      -0.650100
      5 N5           3.4130     0.0010     1.2750 n          1 G5K      -0.153800
      6 C6           4.2700     0.0070     0.0810 c3         1 G5K       0.054000
      7 C7           5.7340     0.0390     0.5690 c3         1 G5K      -0.041400
      8 C8           5.6110     0.6190     2.0020 c3         1 G5K       0.097500
      9 C9           4.2710    -0.0000     2.4740 c3         1 G5K       0.037000
     10 N10          6.7220     0.1730     2.8470 nu         1 G5K      -0.457900
     11 C11          7.1070     0.9290     3.9390 ca         1 G5K       0.756900
     12 N12          8.1140     0.5100     4.6920 nb         1 G5K      -0.700000
     13 C13          8.5120     1.2070     5.7460 ca         1 G5K       0.499600
     14 C14          9.6580     0.7190     6.5930 c3         1 G5K       0.104500
     15 N15          9.1580    -0.2350     7.5930 n3         1 G5K      -0.522600
     16 C16          8.2760     0.4320     8.5610 c3         1 G5K       0.103800
     17 C17          7.7310    -0.6070     9.5460 c3         1 G5K       0.215400
     18 O18          8.8250    -1.2740    10.1800 os         1 G5K      -0.412600
     19 C19          9.7040    -1.9350     9.2660 c3         1 G5K       0.215400
     20 C20         10.2690    -0.9100     8.2790 c3         1 G5K       0.103800
     21 C21          7.8640     2.3860     6.0610 ca         1 G5K      -0.467600
     22 C22          6.8070     2.8020     5.2490 ca         1 G5K       0.537200
     23 N23          6.1270     3.9800     5.5270 nu         1 G5K      -0.300900
     24 C24          5.1540     4.4360     4.6590 cc         1 G5K       0.469100
     25 N25          4.5390     5.5640     4.7710 nd         1 G5K      -0.529100
     26 C26          3.6160     5.8720     3.8400 ca         1 G5K      -0.003900
     27 C27          2.8120     7.0270     3.7330 ca         1 G5K      -0.032000
     28 C28          1.9250     7.1230     2.6820 ca         1 G5K      -0.213300
     29 C29          1.8410     6.0930     1.7600 ca         1 G5K       0.392200
     30 N30          2.5960     5.0230     1.8740 nb         1 G5K      -0.511000
     31 C31          3.4680     4.8780     2.8660 ca         1 G5K       0.403600
     32 S32          4.5830     3.5650     3.2430 ss         1 G5K      -0.244500
     33 N33          6.4640     2.0560     4.2030 nb         1 G5K      -0.727000
     34 H1          -0.5420     0.0000     0.9380 ha         1 G5K       0.091000
     35 H2          -0.5420    -0.0000    -0.9380 ha         1 G5K       0.091000
     36 H3           1.8720    -0.0000    -0.9380 ha         1 G5K       0.106000
     37 H4           4.0630     0.8870    -0.5160 h1         1 G5K       0.016700
     38 H5           4.0970    -0.8900    -0.5010 h1         1 G5K       0.016700
     39 H6           6.3310     0.6910    -0.0570 hc         1 G5K       0.027200
     40 H7           6.1490    -0.9620     0.5970 hc         1 G5K       0.027200
     41 H8           5.5460     1.7000     1.9740 h1         1 G5K       0.090700
     42 H9           3.8290     0.6090     3.2530 h1         1 G5K       0.038200
     43 H10          4.4280    -1.0140     2.8230 h1         1 G5K       0.038200
     44 H11          7.2190    -0.6650     2.6180 hn         1 G5K       0.303800
     45 H12         10.3910     0.2300     5.9630 h1         1 G5K       0.021700
     46 H13         10.1190     1.5610     7.0960 h1         1 G5K       0.021700
     47 H15          8.8380     1.1830     9.1030 h1         1 G5K       0.018950
     48 H16          7.4510     0.8980     8.0360 h1         1 G5K       0.018950
     49 H17          7.1290    -1.3310     9.0090 h1         1 G5K       0.014200
     50 H18          7.1270    -0.1110    10.2960 h1         1 G5K       0.014200
     51 H19         10.5180    -2.3930     9.8150 h1         1 G5K       0.014200
     52 H20          9.1550    -2.6940     8.7220 h1         1 G5K       0.014200
     53 H21         10.8900    -1.4160     7.5490 h1         1 G5K       0.018950
     54 H22         10.8590    -0.1780     8.8180 h1         1 G5K       0.018950
     55 H23          8.1690     2.9750     6.9180 ha         1 G5K       0.133000
     56 H24          6.3400     4.4960     6.3570 hn         1 G5K       0.297800
     57 H25          2.8910     7.8240     4.4630 ha         1 G5K       0.117000
     58 H26          1.2970     8.0000     2.5780 ha         1 G5K       0.114000
     59 H27          1.1430     6.1700     0.9350 h4         1 G5K      -0.017900
@<TRIPOS>BOND
     1     1     2 2   
     2     1    34 1   
     3     1    35 1   
     4     2     3 1   
     5     2    36 1   
     6     3     4 2   
     7     3     5 1   
     8     5     6 1   
     9     5     9 1   
    10     6     7 1   
    11     6    37 1   
    12     6    38 1   
    13     7     8 1   
    14     7    39 1   
    15     7    40 1   
    16     8     9 1   
    17     8    10 1   
    18     8    41 1   
    19     9    42 1   
    20     9    43 1   
    21    10    11 1   
    22    10    44 1   
    23    11    12 ar  
    24    11    33 ar  
    25    12    13 ar  
    26    13    14 1   
    27    13    21 ar  
    28    14    15 1   
    29    14    45 1   
    30    14    46 1   
    31    15    16 1   
    32    15    20 1   
    33    16    17 1   
    34    16    47 1   
    35    16    48 1   
    36    17    18 1   
    37    17    49 1   
    38    17    50 1   
    39    18    19 1   
    40    19    20 1   
    41    19    51 1   
    42    19    52 1   
    43    20    53 1   
    44    20    54 1   
    45    21    22 ar  
    46    21    55 1   
    47    22    23 1   
    48    22    33 ar  
    49    23    24 1   
    50    23    56 1   
    51    24    25 2   
    52    24    32 1   
    53    25    26 1   
    54    26    27 ar  
    55    26    31 ar  
    56    27    28 ar  
    57    27    57 1   
    58    28    29 ar  
    59    28    58 1   
    60    29    30 ar  
    61    29    59 1   
    62    30    31 ar  
    63    31    32 1   
@<TRIPOS>SUBSTRUCTURE
     1 G5K         1 TEMP              0 ****  ****    0 ROOT
