@<TRIPOS>MOLECULE
molecule
   59    63     1     0     0
SMALL
bcc


@<TRIPOS>ATOM
      1 C1           0.0000     0.0000     0.0000 c2         1 G5K      -0.132000
      2 C2           1.3300     0.0000     0.0000 ce         1 G5K      -0.245200
      3 C3           2.0650     0.0000     1.2750 c          1 G5K       0.685300
      4 O4           1.4560    -0.0010     2.3280 o          1 G5K      -0.607100
      5 N5           3.4130     0.0010     1.2750 n          1 G5K      -0.494800
      6 C6           4.2700     0.0070     0.0810 c3         1 G5K       0.099000
      7 C7           5.7340     0.0390     0.5690 c3         1 G5K      -0.109400
      8 C8           5.6110     0.6190     2.0020 c3         1 G5K       0.227500
      9 C9           4.2710    -0.0000     2.4740 c3         1 G5K       0.087000
     10 N10          6.7220     0.1730     2.8470 nu         1 G5K      -0.884900
     11 C11          7.1070     0.9290     3.9390 ca         1 G5K       0.988900
     12 N12          8.1140     0.5100     4.6920 nb         1 G5K      -0.804000
     13 C13          8.5120     1.2070     5.7460 ca         1 G5K       0.545600
     14 C14          9.6580     0.7190     6.5930 c3         1 G5K       0.114500
     15 N15          9.1580    -0.2350     7.5930 n3         1 G5K      -0.715600
     16 C16          8.2760     0.4320     8.5610 c3         1 G5K       0.120800
     17 C17          7.7310    -0.6070     9.5460 c3         1 G5K       0.140400
     18 O18          8.8250    -1.2740    10.1800 os         1 G5K      -0.424600
     19 C19          9.7040    -1.9350     9.2660 c3         1 G5K       0.140400
     20 C20         10.2690    -0.9100     8.2790 c3         1 G5K       0.120800
     21 C21          7.8640     2.3860     6.0610 ca         1 G5K      -0.482600
     22 C22          6.8070     2.8020     5.2490 ca         1 G5K       0.751200
     23 N23          6.1270     3.9800     5.5270 nu         1 G5K      -0.789900
     24 C24          5.1540     4.4360     4.6590 cd         1 G5K       0.623100
     25 N25          4.5390     5.5640     4.7710 nc         1 G5K      -0.652100
     26 C26          3.6160     5.8720     3.8400 ca         1 G5K       0.033100
     27 C27          2.8120     7.0270     3.7330 ca         1 G5K      -0.054000
     28 C28          1.9250     7.1230     2.6820 ca         1 G5K      -0.252300
     29 C29          1.8410     6.0930     1.7600 ca         1 G5K       0.420200
     30 N30          2.5960     5.0230     1.8740 nb         1 G5K      -0.650000
     31 C31          3.4680     4.8780     2.8660 ca         1 G5K       0.397600
     32 S32          4.5830     3.5650     3.2430 ss         1 G5K      -0.079500
     33 N33          6.4640     2.0560     4.2030 nb         1 G5K      -0.865000
     34 H1          -0.5420    -0.0000    -0.9380 ha         1 G5K       0.128500
     35 H2          -0.5420     0.0000     0.9380 ha         1 G5K       0.128500
     36 H3           1.8720    -0.0000    -0.9380 ha         1 G5K       0.125000
     37 H4           4.0970    -0.8900    -0.5010 h1         1 G5K       0.047200
     38 H5           4.0630     0.8870    -0.5160 h1         1 G5K       0.047200
     39 H6           6.3310     0.6910    -0.0570 hc         1 G5K       0.059700
     40 H7           6.1490    -0.9620     0.5970 hc         1 G5K       0.059700
     41 H8           5.5460     1.7000     1.9740 h1         1 G5K       0.099700
     42 H9           3.8290     0.6090     3.2530 h1         1 G5K       0.067700
     43 H10          4.4280    -1.0140     2.8230 h1         1 G5K       0.067700
     44 H11          7.2190    -0.6650     2.6180 hn         1 G5K       0.464800
     45 H12         10.3910     0.2300     5.9630 h1         1 G5K       0.054700
     46 H13         10.1190     1.5610     7.0960 h1         1 G5K       0.054700
     47 H15          7.4510     0.8980     8.0360 h1         1 G5K       0.044200
     48 H16          8.8380     1.1830     9.1030 h1         1 G5K       0.044200
     49 H17          7.1270    -0.1110    10.2960 h1         1 G5K       0.056200
     50 H18          7.1290    -1.3310     9.0090 h1         1 G5K       0.056200
     51 H19          9.1550    -2.6940     8.7220 h1         1 G5K       0.056200
     52 H20         10.5180    -2.3930     9.8150 h1         1 G5K       0.056200
     53 H21         10.8900    -1.4160     7.5490 h1         1 G5K       0.044200
     54 H22         10.8590    -0.1780     8.8180 h1         1 G5K       0.044200
     55 H23          8.1690     2.9750     6.9180 ha         1 G5K       0.146000
     56 H24          6.3400     4.4960     6.3570 hn         1 G5K       0.479800
     57 H25          2.8910     7.8240     4.4630 ha         1 G5K       0.149000
     58 H26          1.2970     8.0000     2.5780 ha         1 G5K       0.141000
     59 H27          1.1430     6.1700     0.9350 h4         1 G5K       0.025100
@<TRIPOS>BOND
     1    28    27 ar
     2    28    29 ar
     3    27    26 ar
     4    29    30 ar
     5    26    31 ar
     6    26    25 1
     7    30    31 ar
     8    31    32 1
     9    25    24 2
    10    24    32 1
    11    24    23 1
    12    23    22 1
    13    22    21 ar
    14    22    33 ar
    15     7     6 1
    16     7     8 1
    17    21    13 ar
    18    33    11 ar
    19     6     5 1
    20    11    10 1
    21    11    12 ar
    22    13    14 1
    23    13    12 ar
    24     8    10 1
    25     8     9 1
    26    14    15 1
    27     5     9 1
    28     5     3 1
    29     4     3 2
    30     3     2 1
    31    15    20 1
    32    15    16 1
    33    20    19 1
    34    16    17 1
    35     2     1 2
    36    19    18 1
    37    17    18 1
    38     1    34 1
    39     1    35 1
    40     2    36 1
    41     6    37 1
    42     6    38 1
    43     7    39 1
    44     7    40 1
    45     8    41 1
    46     9    42 1
    47     9    43 1
    48    10    44 1
    49    14    45 1
    50    14    46 1
    51    16    47 1
    52    16    48 1
    53    17    49 1
    54    17    50 1
    55    19    51 1
    56    19    52 1
    57    20    53 1
    58    20    54 1
    59    21    55 1
    60    23    56 1
    61    27    57 1
    62    28    58 1
    63    29    59 1
@<TRIPOS>SUBSTRUCTURE
     1 G5K         1 TEMP              0 ****  ****    0 ROOT
