@<TRIPOS>MOLECULE
molecule
   17    17     1     0     0
SMALL
bcc


@<TRIPOS>ATOM
      1 OAK          0.0000     0.0000     0.0000 o          1 G5V      -0.825800
      2 CAJ          1.2150     0.0000     0.0000 c          1 G5V       0.895800
      3 OAL          1.8890     0.0000     1.1670 o          1 G5V      -0.825800
      4 CAF          1.9510    -0.0050    -1.2750 cc         1 G5V      -0.271400
      5 CAG          3.4170     0.1330    -1.3040 c          1 G5V       0.543500
      6 OAH          4.0620     0.2550    -0.2750 o          1 G5V      -0.493100
      7 CAC          4.0540     0.1170    -2.5770 cc         1 G5V      -0.111100
      8 OAD          5.4050     0.2400    -2.6760 oh         1 G5V      -0.502100
      9 CAB          3.2960    -0.0220    -3.6850 cd         1 G5V       0.021100
     10 OAA          1.9640    -0.1450    -3.6180 os         1 G5V      -0.220200
     11 CAE          1.2940    -0.1450    -2.4670 cd         1 G5V       0.063900
     12 CAI         -0.2060    -0.2950    -2.4770 c3         1 G5V      -0.003900
     13 H2           5.6290     1.1440    -2.8230 ho         1 G5V       0.400000
     14 H3           3.7780    -0.0320    -4.6550 h4         1 G5V       0.161000
     15 H4          -0.6610     0.5920    -2.0530 hc         1 G5V       0.056033
     16 H5          -0.4870    -1.1610    -1.8900 hc         1 G5V       0.056033
     17 H6          -0.5490    -0.4240    -3.4970 hc         1 G5V       0.056033
@<TRIPOS>BOND
     1     8     7 1
     2     6     5 2
     3     7     5 1
     4     7     9 2
     5     5     4 1
     6     9    10 1
     7     4     2 1
     8     4    11 2
     9     1     2 1
    10     2     3 1
    11    10    11 1
    12    11    12 1
    13     8    13 1
    14     9    14 1
    15    12    15 1
    16    12    16 1
    17    12    17 1
@<TRIPOS>SUBSTRUCTURE
     1 G5V         1 TEMP              0 ****  ****    0 ROOT
