@<TRIPOS>MOLECULE
molecule
   14    14     1     0     0
SMALL
bcc


@<TRIPOS>ATOM
      1 OAI          0.0000     0.0000     0.0000 o          1 G5Y      -0.789800
      2 CAH          1.2140     0.0000     0.0000 c          1 G5Y       0.889800
      3 OAK          1.8880     0.0000     1.1670 o          1 G5Y      -0.789800
      4 CAG          1.9520    -0.0040    -1.2750 cc         1 G5Y       0.063900
      5 OAC          3.2980    -0.0030    -1.2700 os         1 G5Y      -0.154200
      6 CAB          4.0240    -0.0070    -2.3890 cd         1 G5Y       0.074100
      7 CAA          3.4500    -0.0120    -3.6120 cc         1 G5Y      -0.376200
      8 CAE          2.0380    -0.0140    -3.7110 c          1 G5Y       0.544500
      9 OAD          1.4810    -0.0240    -4.7970 o          1 G5Y      -0.615100
     10 CAF          1.2640    -0.0140    -2.4560 cd         1 G5Y      -0.107100
     11 OAJ         -0.0910    -0.0170    -2.4720 oh         1 G5Y      -0.444100
     12 H2           5.1050    -0.0060    -2.3140 h4         1 G5Y       0.161000
     13 H3           4.0630    -0.0160    -4.5050 ha         1 G5Y       0.142000
     14 H4          -0.3980    -0.7680    -2.9510 ho         1 G5Y       0.400000
@<TRIPOS>BOND
     1     9     8 2
     2    11    10 1
     3     8    10 1
     4     8     7 1
     5    10     4 2
     6     7     6 2
     7     4     2 1
     8     4     5 1
     9     1     2 1
    10     6     5 1
    11     2     3 1
    12     6    12 1
    13     7    13 1
    14    11    14 1
@<TRIPOS>SUBSTRUCTURE
     1 G5Y         1 TEMP              0 ****  ****    0 ROOT
