@<TRIPOS>MOLECULE
molecule
   91    93     1     0     0
SMALL
bcc


@<TRIPOS>ATOM
      1 O39          0.0000     0.0000     0.0000 os         1 G61      -0.324900
      2 C40          1.4290     0.0000     0.0000 c3         1 G61       0.126700
      3 C2          -0.6170     0.0000     1.2110 ca         1 G61       0.190100
      4 C3           0.1380     0.0050     2.3750 ca         1 G61      -0.214500
      5 C4          -0.4920     0.0050     3.6050 ca         1 G61       0.006500
      6 C5          -1.8720    -0.0010     3.6760 ca         1 G61      -0.354500
      7 C6          -2.6260    -0.0060     2.5170 ca         1 G61       0.006500
      8 C7          -2.0020     0.0000     1.2850 ca         1 G61      -0.214500
      9 S8          -2.6720    -0.0010     5.2460 sy         1 G61       1.425200
     10 O9          -3.9660    -0.5520     5.0370 o          1 G61      -0.635800
     11 O10         -1.7390    -0.5400     6.1720 o          1 G61      -0.635800
     12 N11         -2.9010     1.5800     5.6800 n3         1 G61      -0.802500
     13 C12         -1.8720     2.2850     6.4480 c3         1 G61       0.231800
     14 C13         -0.9360     3.0230     5.4890 c3         1 G61      -0.105700
     15 C14         -1.7260     4.0860     4.7220 c3         1 G61      -0.086100
     16 C15          0.1830     3.6960     6.2860 c3         1 G61      -0.086100
     17 C16         -4.1330     2.2740     5.2960 c3         1 G61       0.209800
     18 C17         -5.1490     2.1770     6.4360 c3         1 G61       0.100100
     19 O18         -4.6570     2.8840     7.5760 oh         1 G61      -0.592800
     20 C19         -6.4770     2.7920     5.9890 c3         1 G61       0.114700
     21 N20         -6.9820     2.0670     4.8200 ns         1 G61      -0.575900
     22 C21         -7.2480     0.7490     4.9080 c          1 G61       0.757100
     23 O22         -7.0680     0.1610     5.9560 o          1 G61      -0.608000
     24 O23         -7.7120     0.0820     3.8340 os         1 G61      -0.436900
     25 C24         -7.9760    -1.3360     4.0020 c3         1 G61       0.176800
     26 C25         -9.0280    -1.5330     5.0950 c3         1 G61      -0.104767
     27 C26         -8.4930    -1.9170     2.6840 c3         1 G61      -0.104767
     28 C27         -6.6840    -2.0500     4.4020 c3         1 G61      -0.104767
     29 C32         -7.4940     2.6950     7.1280 c3         1 G61      -0.062100
     30 C33         -9.7660     2.7200     6.0850 ca         1 G61      -0.102000
     31 C34        -10.9370     3.3810     5.7210 cp         1 G61      -0.037000
     32 C35        -11.0860     4.7360     6.0120 ca         1 G61      -0.116000
     33 C36        -10.0740     5.4140     6.6600 ca         1 G61      -0.129000
     34 C37         -8.9140     4.7530     7.0200 ca         1 G61      -0.128000
     35 C38         -8.7610     3.4090     6.7330 ca         1 G61      -0.086300
     36 C51        -12.0220     2.6460     5.0240 cp         1 G61       0.035000
     37 C52        -11.8730     1.2910     4.7380 ca         1 G61      -0.189500
     38 C53        -12.8880     0.6070     4.0870 ca         1 G61       0.178600
     39 C54        -14.0500     1.2700     3.7210 ca         1 G61      -0.315000
     40 C55        -14.2000     2.6200     4.0040 ca         1 G61       0.178600
     41 C56        -13.1920     3.3090     4.6600 ca         1 G61      -0.189500
     42 O61        -12.7440    -0.7150     3.8070 os         1 G61      -0.326400
     43 C62        -13.8300    -1.3570     3.1340 c3         1 G61       0.129700
     44 O63        -15.3400     3.2660     3.6440 os         1 G61      -0.326400
     45 C64        -16.3400     2.4960     2.9760 c3         1 G61       0.129700
     46 H1           1.7900    -0.0110    -1.0210 h1         1 G61       0.045367
     47 H2           1.7900    -0.8790     0.5210 h1         1 G61       0.045367
     48 H3           1.7900     0.8900     0.5010 h1         1 G61       0.045367
     49 H4           1.2200     0.0090     2.3200 ha         1 G61       0.145000
     50 H5           0.0970     0.0090     4.5140 ha         1 G61       0.151500
     51 H6          -3.7080    -0.0080     2.5760 ha         1 G61       0.151500
     52 H7          -2.5930    -0.0040     0.3770 ha         1 G61       0.145000
     53 H8          -1.3030     1.5710     7.0300 h1         1 G61       0.074200
     54 H9          -2.3430     2.9990     7.1130 h1         1 G61       0.074200
     55 H10         -0.5060     2.3170     4.7890 hc         1 G61       0.049700
     56 H11         -1.0380     4.7930     4.2730 hc         1 G61       0.035033
     57 H12         -2.3860     4.6070     5.4040 hc         1 G61       0.035033
     58 H13         -2.3110     3.6100     3.9450 hc         1 G61       0.035033
     59 H14         -0.2420     4.4490     6.9390 hc         1 G61       0.035033
     60 H15          0.8820     4.1630     5.6030 hc         1 G61       0.035033
     61 H16          0.7000     2.9530     6.8800 hc         1 G61       0.035033
     62 H17         -4.5440     1.8140     4.4050 h1         1 G61       0.056200
     63 H18         -3.9140     3.3160     5.0950 h1         1 G61       0.056200
     64 H19         -5.3020     1.1360     6.6950 h1         1 G61       0.133700
     65 H20         -4.9260     3.7860     7.5270 ho         1 G61       0.391000
     66 H21         -6.3240     3.8330     5.7290 h1         1 G61       0.055700
     67 H22         -7.1140     2.5470     3.9520 hn         1 G61       0.325500
     68 H23         -9.7330    -0.7110     5.0710 hc         1 G61       0.050811
     69 H24         -8.5420    -1.5640     6.0630 hc         1 G61       0.050811
     70 H25         -9.5540    -2.4650     4.9250 hc         1 G61       0.050811
     71 H26         -9.3290    -1.3240     2.3310 hc         1 G61       0.050811
     72 H27         -8.8170    -2.9390     2.8430 hc         1 G61       0.050811
     73 H28         -7.7010    -1.9000     1.9460 hc         1 G61       0.050811
     74 H29         -5.8680    -1.6930     3.7860 hc         1 G61       0.050811
     75 H30         -6.8030    -3.1180     4.2610 hc         1 G61       0.050811
     76 H31         -6.4660    -1.8470     5.4440 hc         1 G61       0.050811
     77 H32         -7.7130     1.6530     7.3280 hc         1 G61       0.081700
     78 H33         -7.0830     3.1550     8.0180 hc         1 G61       0.081700
     79 H35        -11.9940     5.2550     5.7310 ha         1 G61       0.137000
     80 H36        -10.1890     6.4670     6.8880 ha         1 G61       0.130000
     81 H37         -8.1220     5.2900     7.5290 ha         1 G61       0.126000
     82 H38        -10.9660     0.7730     5.0230 ha         1 G61       0.149500
     83 H39        -14.8410     0.7340     3.2100 ha         1 G61       0.139000
     84 H40        -13.3100     4.3630     4.8810 ha         1 G61       0.149500
     85 H41        -13.9940    -0.8800     2.1760 h1         1 G61       0.040700
     86 H42        -13.5910    -2.4030     2.9810 h1         1 G61       0.040700
     87 H43        -14.7270    -1.2760     3.7360 h1         1 G61       0.040700
     88 H44        -15.9320     2.0930     2.0560 h1         1 G61       0.040700
     89 H45        -17.1900     3.1270     2.7470 h1         1 G61       0.040700
     90 H46        -16.6570     1.6820     3.6170 h1         1 G61       0.040700
     91 H34         -9.6450     1.6670     5.8610 ha         1 G61       0.146000
@<TRIPOS>BOND
     1    28    25 1
     2    26    25 1
     3    16    14 1
     4    27    25 1
     5    25    24 1
     6    15    14 1
     7    14    13 1
     8    23    22 2
     9    24    22 1
    10    22    21 1
    11    13    12 1
    12    11     9 2
    13    12     9 1
    14    12    17 1
    15    21    20 1
    16    18    20 1
    17    18    19 1
    18    18    17 1
    19     5     4 ar
    20     5     6 ar
    21     9     6 1
    22     9    10 2
    23    20    29 1
    24    43    42 1
    25     4     3 ar
    26    42    38 1
    27     6     7 ar
    28    38    37 ar
    29    38    39 ar
    30     2     1 1
    31    37    36 ar
    32    39    40 ar
    33     3     1 1
    34     3     8 ar
    35    29    35 1
    36    45    44 1
    37    36    31 1
    38    36    41 ar
    39    30    31 ar
    40    30    35 ar
    41    40    41 ar
    42    40    44 1
    43    31    32 ar
    44     7     8 ar
    45    35    34 ar
    46    32    33 ar
    47    34    33 ar
    48     2    46 1
    49     2    47 1
    50     2    48 1
    51     4    49 1
    52     5    50 1
    53     7    51 1
    54     8    52 1
    55    13    53 1
    56    13    54 1
    57    14    55 1
    58    15    56 1
    59    15    57 1
    60    15    58 1
    61    16    59 1
    62    16    60 1
    63    16    61 1
    64    17    62 1
    65    17    63 1
    66    18    64 1
    67    19    65 1
    68    20    66 1
    69    21    67 1
    70    26    68 1
    71    26    69 1
    72    26    70 1
    73    27    71 1
    74    27    72 1
    75    27    73 1
    76    28    74 1
    77    28    75 1
    78    28    76 1
    79    29    77 1
    80    29    78 1
    81    30    91 1
    82    32    79 1
    83    33    80 1
    84    34    81 1
    85    37    82 1
    86    39    83 1
    87    41    84 1
    88    43    85 1
    89    43    86 1
    90    43    87 1
    91    45    88 1
    92    45    89 1
    93    45    90 1
@<TRIPOS>SUBSTRUCTURE
     1 G61         1 TEMP              0 ****  ****    0 ROOT
