@<TRIPOS>MOLECULE
G61
   91    93     1     0     0
SMALL
bcc


@<TRIPOS>ATOM
      1 O39          0.0000     0.0000     0.0000 os         1 G61      -0.305900
      2 C40          1.4290     0.0000     0.0000 c3         1 G61       0.245700
      3 C2          -0.6170     0.0000     1.2110 ca         1 G61       0.200100
      4 C3           0.1380     0.0050     2.3750 ca         1 G61      -0.210000
      5 C4          -0.4920     0.0050     3.6050 ca         1 G61       0.044000
      6 C5          -1.8720    -0.0010     3.6760 ca         1 G61      -0.204500
      7 C6          -2.6260    -0.0060     2.5170 ca         1 G61       0.044000
      8 C7          -2.0020     0.0000     1.2850 ca         1 G61      -0.210000
      9 S8          -2.6720    -0.0010     5.2460 sy         1 G61       1.048200
     10 O9          -3.9660    -0.5520     5.0370 o          1 G61      -0.585800
     11 O10         -1.7390    -0.5400     6.1720 o          1 G61      -0.585800
     12 N11         -2.9010     1.5800     5.6800 n3         1 G61      -0.503500
     13 C12         -1.8720     2.2850     6.4480 c3         1 G61       0.216800
     14 C13         -0.9360     3.0230     5.4890 c3         1 G61      -0.090700
     15 C14         -1.7260     4.0860     4.7220 c3         1 G61       0.006900
     16 C15          0.1830     3.6960     6.2860 c3         1 G61       0.006900
     17 C16         -4.1330     2.2740     5.2960 c3         1 G61       0.186800
     18 C17         -5.1490     2.1770     6.4360 c3         1 G61       0.122100
     19 O18         -4.6570     2.8840     7.5760 oh         1 G61      -0.576800
     20 C19         -6.4770     2.7920     5.9890 c3         1 G61       0.016700
     21 N20         -6.9820     2.0670     4.8200 ns         1 G61      -0.175900
     22 C21         -7.2480     0.7490     4.9080 c          1 G61       0.693100
     23 O22         -7.0680     0.1610     5.9560 o          1 G61      -0.647000
     24 O23         -7.7120     0.0820     3.8340 os         1 G61      -0.420900
     25 C24         -7.9760    -1.3360     4.0020 c3         1 G61       0.195800
     26 C25         -9.0280    -1.5330     5.0950 c3         1 G61      -0.033767
     27 C26         -8.4930    -1.9170     2.6840 c3         1 G61      -0.033767
     28 C27         -6.6840    -2.0500     4.4020 c3         1 G61      -0.033767
     29 C32         -7.4940     2.6950     7.1280 c3         1 G61      -0.014100
     30 C33         -9.7660     2.7200     6.0850 ca         1 G61      -0.095000
     31 C34        -10.9370     3.3810     5.7210 cp         1 G61      -0.033000
     32 C35        -11.0860     4.7360     6.0120 ca         1 G61      -0.098000
     33 C36        -10.0740     5.4140     6.6600 ca         1 G61      -0.099000
     34 C37         -8.9140     4.7530     7.0200 ca         1 G61      -0.103000
     35 C38         -8.7610     3.4090     6.7330 ca         1 G61      -0.091300
     36 C51        -12.0220     2.6460     5.0240 cp         1 G61       0.047000
     37 C52        -11.8730     1.2910     4.7380 ca         1 G61      -0.188000
     38 C53        -12.8880     0.6070     4.0870 ca         1 G61       0.196100
     39 C54        -14.0500     1.2700     3.7210 ca         1 G61      -0.323000
     40 C55        -14.2000     2.6200     4.0040 ca         1 G61       0.196100
     41 C56        -13.1920     3.3090     4.6600 ca         1 G61      -0.188000
     42 O61        -12.7440    -0.7150     3.8070 os         1 G61      -0.306900
     43 C62        -13.8300    -1.3570     3.1340 c3         1 G61       0.245200
     44 O63        -15.3400     3.2660     3.6440 os         1 G61      -0.306900
     45 C64        -16.3400     2.4960     2.9760 c3         1 G61       0.245200
     46 H1           1.7900    -0.0110    -1.0210 h1         1 G61       0.000033
     47 H2           1.7900    -0.8790     0.5210 h1         1 G61       0.000033
     48 H3           1.7900     0.8900     0.5010 h1         1 G61       0.000033
     49 H4           1.2200     0.0090     2.3200 ha         1 G61       0.124000
     50 H5           0.0970     0.0090     4.5140 ha         1 G61       0.122000
     51 H6          -3.7080    -0.0080     2.5760 ha         1 G61       0.122000
     52 H7          -2.5930    -0.0040     0.3770 ha         1 G61       0.124000
     53 H8          -1.3030     1.5710     7.0300 h1         1 G61       0.043700
     54 H9          -2.3430     2.9990     7.1130 h1         1 G61       0.043700
     55 H10         -0.5060     2.3170     4.7890 hc         1 G61       0.028700
     56 H11         -1.0380     4.7930     4.2730 hc         1 G61       0.003700
     57 H12         -2.3860     4.6070     5.4040 hc         1 G61       0.003700
     58 H13         -2.3110     3.6100     3.9450 hc         1 G61       0.003700
     59 H14         -0.2420     4.4490     6.9390 hc         1 G61       0.003700
     60 H15          0.8820     4.1630     5.6030 hc         1 G61       0.003700
     61 H16          0.7000     2.9530     6.8800 hc         1 G61       0.003700
     62 H17         -4.5440     1.8140     4.4050 h1         1 G61       0.027200
     63 H18         -3.9140     3.3160     5.0950 h1         1 G61       0.027200
     64 H19         -5.3020     1.1360     6.6950 h1         1 G61       0.105700
     65 H20         -4.9260     3.7860     7.5270 ho         1 G61       0.383000
     66 H21         -6.3240     3.8330     5.7290 h1         1 G61       0.027700
     67 H22         -7.1140     2.5470     3.9520 hn         1 G61       0.175500
     68 H23         -9.7330    -0.7110     5.0710 hc         1 G61       0.021367
     69 H24         -8.5420    -1.5640     6.0630 hc         1 G61       0.021367
     70 H25         -9.5540    -2.4650     4.9250 hc         1 G61       0.021367
     71 H26         -9.3290    -1.3240     2.3310 hc         1 G61       0.021367
     72 H27         -8.8170    -2.9390     2.8430 hc         1 G61       0.021367
     73 H28         -7.7010    -1.9000     1.9460 hc         1 G61       0.021367
     74 H29         -5.8680    -1.6930     3.7860 hc         1 G61       0.021367
     75 H30         -6.8030    -3.1180     4.2610 hc         1 G61       0.021367
     76 H31         -6.4660    -1.8470     5.4440 hc         1 G61       0.021367
     77 H32         -7.7130     1.6530     7.3280 hc         1 G61       0.056200
     78 H33         -7.0830     3.1550     8.0180 hc         1 G61       0.056200
     79 H35        -11.9940     5.2550     5.7310 ha         1 G61       0.114000
     80 H36        -10.1890     6.4670     6.8880 ha         1 G61       0.102000
     81 H37         -8.1220     5.2900     7.5290 ha         1 G61       0.102000
     82 H38        -10.9660     0.7730     5.0230 ha         1 G61       0.131000
     83 H39        -14.8410     0.7340     3.2100 ha         1 G61       0.138000
     84 H40        -13.3100     4.3630     4.8810 ha         1 G61       0.131000
     85 H41        -13.9940    -0.8800     2.1760 h1         1 G61      -0.002967
     86 H42        -13.5910    -2.4030     2.9810 h1         1 G61      -0.002967
     87 H43        -14.7270    -1.2760     3.7360 h1         1 G61      -0.002967
     88 H44        -15.9320     2.0930     2.0560 h1         1 G61      -0.002967
     89 H45        -17.1900     3.1270     2.7470 h1         1 G61      -0.002967
     90 H46        -16.6570     1.6820     3.6170 h1         1 G61      -0.002967
     91 H34         -9.6450     1.6670     5.8610 ha         1 G61       0.127000
@<TRIPOS>BOND
     1     1     2 1   
     2     1     3 1   
     3     2    46 1   
     4     2    47 1   
     5     2    48 1   
     6     3     4 ar  
     7     3     8 ar  
     8     4     5 ar  
     9     4    49 1   
    10     5     6 ar  
    11     5    50 1   
    12     6     7 ar  
    13     6     9 1   
    14     7     8 ar  
    15     7    51 1   
    16     8    52 1   
    17     9    10 2   
    18     9    11 2   
    19     9    12 1   
    20    12    13 1   
    21    12    17 1   
    22    13    14 1   
    23    13    53 1   
    24    13    54 1   
    25    14    15 1   
    26    14    16 1   
    27    14    55 1   
    28    15    56 1   
    29    15    57 1   
    30    15    58 1   
    31    16    59 1   
    32    16    60 1   
    33    16    61 1   
    34    17    18 1   
    35    17    62 1   
    36    17    63 1   
    37    18    19 1   
    38    18    20 1   
    39    18    64 1   
    40    19    65 1   
    41    20    21 1   
    42    20    29 1   
    43    20    66 1   
    44    21    22 1   
    45    21    67 1   
    46    22    23 2   
    47    22    24 1   
    48    24    25 1   
    49    25    26 1   
    50    25    27 1   
    51    25    28 1   
    52    26    68 1   
    53    26    69 1   
    54    26    70 1   
    55    27    71 1   
    56    27    72 1   
    57    27    73 1   
    58    28    74 1   
    59    28    75 1   
    60    28    76 1   
    61    29    35 1   
    62    29    77 1   
    63    29    78 1   
    64    30    31 ar  
    65    30    35 ar  
    66    30    91 1   
    67    31    32 ar  
    68    31    36 1   
    69    32    33 ar  
    70    32    79 1   
    71    33    34 ar  
    72    33    80 1   
    73    34    35 ar  
    74    34    81 1   
    75    36    37 ar  
    76    36    41 ar  
    77    37    38 ar  
    78    37    82 1   
    79    38    39 ar  
    80    38    42 1   
    81    39    40 ar  
    82    39    83 1   
    83    40    41 ar  
    84    40    44 1   
    85    41    84 1   
    86    42    43 1   
    87    43    85 1   
    88    43    86 1   
    89    43    87 1   
    90    44    45 1   
    91    45    88 1   
    92    45    89 1   
    93    45    90 1   
@<TRIPOS>SUBSTRUCTURE
     1 G61         1 TEMP              0 ****  ****    0 ROOT
