@<TRIPOS>MOLECULE
G64
   98   100     1     0     0
SMALL
bcc


@<TRIPOS>ATOM
      1 C2          0.5640   -0.8250   -0.9730 ca        1 G64      0.317100
      2 O39         0.9030   -1.4340   -2.1150 os        1 G64     -0.253900
      3 C40         1.1180   -0.6340   -3.2940 c3        1 G64      0.095700
      4 C3          0.3420   -1.6920    0.1430 ca        1 G64     -0.213000
      5 C4         -0.0270   -1.1630    1.3460 ca        1 G64      0.065500
      6 C5         -0.2070    0.2490    1.5460 ca        1 G64     -0.709500
      7 C6          0.0510    1.0850    0.4120 ca        1 G64      0.065500
      8 C7          0.4170    0.5800   -0.8070 ca        1 G64     -0.213000
      9 S8         -0.7040    0.8040    2.8710 s4        1 G64      1.693300
     10 O9         -0.9790    2.1300    2.9840 o         1 G64     -0.442900
     11 O10        -1.0320   -0.0620    3.8670 o         1 G64     -0.442900
     12 N11         1.2930    1.3060    4.5900 n3        1 G64     -0.882200
     13 C12         2.6760    1.3520    4.1230 c3        1 G64      0.121800
     14 C13         3.1270    2.6310    3.4050 c3        1 G64     -0.064700
     15 C14         4.5710    2.4470    2.9730 c3        1 G64     -0.106100
     16 C15         2.2630    2.9710    2.2130 c3        1 G64     -0.106100
     17 C16         0.8700    2.4070    5.4350 c3        1 G64      0.117800
     18 C17         1.4160    2.4100    6.8750 c3        1 G64      0.093100
     19 O18         2.8110    2.6190    6.9510 oh        1 G64     -0.609800
     20 C19         0.6850    3.4770    7.7390 c3        1 G64      0.103500
     21 N20         1.3150    3.5490    9.1130 n4        1 G64     -0.674800
     22 C21         0.7950    2.5410   10.1020 c         1 G64      0.568700
     23 O22         0.0970    1.6350    9.6650 o         1 G64     -0.414100
     24 C32         0.7020    4.8610    7.0730 c3        1 G64     -0.054100
     25 C33         1.0850    6.8090    8.5980 ca        1 G64     -0.134500
     26 C34         0.6050    7.8620    9.3740 ca        1 G64     -0.112000
     27 C35        -0.7710    8.0520    9.5230 ca        1 G64     -0.090000
     28 C36        -1.6650    7.1850    8.8930 ca        1 G64     -0.112000
     29 C37        -1.1880    6.1320    8.1140 ca        1 G64     -0.134500
     30 C38         0.1900    5.9370    7.9630 ca        1 G64     -0.175300
     31 C51         1.1610    2.7530   11.5150 ca        1 G64     -0.185600
     32 C52         2.3200    3.4320   11.9120 ca        1 G64     -0.055000
     33 C53         2.6190    3.5800   13.2710 ca        1 G64     -0.037300
     34 C54         1.7520    3.0410   14.2340 ca        1 G64     -0.047000
     35 C55         0.6010    2.3490   13.8420 ca        1 G64     -0.173600
     36 C56         0.3010    2.2040   12.4780 ca        1 G64      0.003000
     37 C57         3.8440    4.2930   13.7010 c3        1 G64     -0.085800
     38 C58        -0.3860    1.7950   14.7980 c         1 G64      0.550700
     39 O59        -1.5770    1.6530   14.5450 o         1 G64     -0.407100
     40 N60         0.1050    1.3920   16.1640 n4        1 G64     -0.582200
     41 C61         1.1160    0.3070   16.0510 c3        1 G64      0.093100
     42 C62        -1.0180    1.0510   17.1320 c3        1 G64      0.138500
     43 C63        -1.5670   -0.3080   17.0180 cc        1 G64      0.094300
     44 N64        -0.8540   -1.4620   17.4210 nc        1 G64     -0.691000
     45 C65        -1.7130   -2.4740   17.3330 cd        1 G64      0.549700
     46 O66        -2.9840   -2.0400   16.8750 os        1 G64     -0.358800
     47 C67        -2.8760   -0.6710   16.6820 cd        1 G64      0.288700
     48 C68        -4.0660    0.0480   16.2280 c3        1 G64     -0.162400
     49 C69        -1.5980   -3.9120   17.6370 c3        1 G64     -0.142400
     50 H1          1.9770    0.0590   -3.1320 h1        1 G64      0.088033
     51 H2          1.3630   -1.4120   -4.0660 h1        1 G64      0.088033
     52 H3          0.1830   -0.0850   -3.5580 h1        1 G64      0.088033
     53 H4          0.4670   -2.7800   -0.0010 ha        1 G64      0.196500
     54 H5         -0.2130   -1.8400    2.2040 ha        1 G64      0.174000
     55 H6         -0.0620    2.1810    0.5360 ha        1 G64      0.174000
     56 H7          0.5940    1.2560   -1.6620 ha        1 G64      0.196500
     57 H8          3.3900    1.1800    4.9840 h1        1 G64      0.064700
     58 H9          2.7970    0.4860    3.4090 h1        1 G64      0.064700
     59 H10         3.0880    3.4940    4.1290 hc        1 G64      0.032700
     60 H11         4.9460    3.3840    2.4940 hc        1 G64      0.050533
     61 H12         4.6600    1.6150    2.2350 hc        1 G64      0.050533
     62 H13         5.2200    2.2150    3.8510 hc        1 G64      0.050533
     63 H14         2.6820    3.8640    1.6840 hc        1 G64      0.050533
     64 H15         1.2180    3.2120    2.5260 hc        1 G64      0.050533
     65 H16         2.2370    2.1200    1.4890 hc        1 G64      0.050533
     66 H17         1.1460    3.3760    4.9270 h1        1 G64      0.087700
     67 H18        -0.2580    2.3600    5.4960 h1        1 G64      0.087700
     68 H19         1.2550    1.3970    7.3550 h1        1 G64      0.102700
     69 H20         3.0850    3.2020    6.2270 ho        1 G64      0.437000
     70 H21        -0.3880    3.1470    7.8810 hx        1 G64      0.124700
     71 H22         1.1600    4.4990    9.4940 hn        1 G64      0.478800
     72 H23         0.0460    4.7940    6.1600 hc        1 G64      0.087700
     73 H24         1.7440    5.0990    6.7280 hc        1 G64      0.087700
     74 H27        -1.1500    8.8980   10.1200 ha        1 G64      0.168000
     75 H28        -2.7520    7.3460    8.9930 ha        1 G64      0.163500
     76 H29        -1.8990    5.4710    7.5950 ha        1 G64      0.136500
     77 H30         3.0280    3.8490   11.1770 ha        1 G64      0.154000
     78 H31         2.0060    3.1960   15.2970 ha        1 G64      0.160000
     79 H32        -0.6130    1.6620   12.1670 ha        1 G64      0.193000
     80 H33         4.2960    4.8790   12.8630 hc        1 G64      0.082700
     81 H34         4.6090    3.5570   14.0630 hc        1 G64      0.082700
     82 H35         3.6190    5.0000   14.5400 hc        1 G64      0.082700
     83 H36         0.6870   -0.5590   15.4800 hx        1 G64      0.113367
     84 H37         2.0200    0.7040   15.5180 hx        1 G64      0.113367
     85 H38         1.3990   -0.0420   17.0840 hx        1 G64      0.113367
     86 H39        -0.5700    1.1960   18.1630 hx        1 G64      0.117700
     87 H40        -1.8410    1.8060   16.9610 hx        1 G64      0.117700
     88 H41        -4.6370    0.4330   17.1140 hc        1 G64      0.087033
     89 H42        -4.7440   -0.6310   15.6490 hc        1 G64      0.087033
     90 H43        -3.7650    0.9110   15.5820 hc        1 G64      0.087033
     91 H44        -2.5100   -4.4540   17.2790 hc        1 G64      0.093033
     92 H45        -0.6920   -4.3390   17.1410 hc        1 G64      0.093033
     93 H46        -1.5040   -4.0520   18.7460 hc        1 G64      0.093033
     94 H25         2.1690    6.7020    8.4400 ha        1 G64      0.136500
     95 H111        1.1660    0.4390    5.0960 hn        1 G64      0.386800
     96 H202        2.3300    3.4010    8.9980 hn        1 G64      0.478800
     97 H601        0.5730    2.2180   16.5630 hn        1 G64      0.447800
     98 H26         1.3110    8.5620    9.8490 ha        1 G64      0.163500
@<TRIPOS>BOND
     1    1    2 1
     2    1    4 ar
     3    1    8 ar
     4    2    3 1
     5    3   50 1
     6    3   51 1
     7    3   52 1
     8    4    5 ar
     9    4   53 1
    10    5    6 ar
    11    5   54 1
    12    6    7 ar
    13    6    9 1
    14    7    8 ar
    15    7   55 1
    16    8   56 1
    17    9   10 1
    18    9   11 1
    19   12   13 1
    20   12   17 1
    21   12   95 1
    22   13   14 1
    23   13   57 1
    24   13   58 1
    25   14   15 1
    26   14   16 1
    27   14   59 1
    28   15   60 1
    29   15   61 1
    30   15   62 1
    31   16   63 1
    32   16   64 1
    33   16   65 1
    34   17   18 1
    35   17   66 1
    36   17   67 1
    37   18   19 1
    38   18   20 1
    39   18   68 1
    40   19   69 1
    41   20   21 1
    42   20   24 1
    43   20   70 1
    44   21   22 1
    45   21   71 1
    46   21   96 1
    47   22   23 2
    48   22   31 1
    49   24   30 1
    50   24   72 1
    51   24   73 1
    52   25   26 ar
    53   25   30 ar
    54   25   94 1
    55   26   27 ar
    56   26   98 1
    57   27   28 ar
    58   27   74 1
    59   28   29 ar
    60   28   75 1
    61   29   30 ar
    62   29   76 1
    63   31   32 ar
    64   31   36 ar
    65   32   33 ar
    66   32   77 1
    67   33   34 ar
    68   33   37 1
    69   34   35 ar
    70   34   78 1
    71   35   36 ar
    72   35   38 1
    73   36   79 1
    74   37   80 1
    75   37   81 1
    76   37   82 1
    77   38   39 2
    78   38   40 1
    79   40   41 1
    80   40   42 1
    81   40   97 1
    82   41   83 1
    83   41   84 1
    84   41   85 1
    85   42   43 1
    86   42   86 1
    87   42   87 1
    88   43   44 1
    89   43   47 2
    90   44   45 2
    91   45   46 1
    92   45   49 1
    93   46   47 1
    94   47   48 1
    95   48   88 1
    96   48   89 1
    97   48   90 1
    98   49   91 1
    99   49   92 1
   100   49   93 1
@<TRIPOS>SUBSTRUCTURE
     1 G64         1 TEMP              0 ****  ****    0 ROOT
