@<TRIPOS>MOLECULE
G65
   66    70     1     0     0
SMALL
bcc


@<TRIPOS>ATOM
      1 CBE          0.0000     0.0000     0.0000 c3         1 G65       0.145800
      2 CBF          1.5300     0.0000     0.0000 c3         1 G65       0.155300
      3 NBG          2.0180     0.0000     1.3870 n3         1 G65      -0.550600
      4 CBJ          3.4850    -0.0770     1.4290 c3         1 G65       0.189100
      5 CBH          1.5310     1.1810     2.1130 c3         1 G65       0.155300
      6 CBI          0.0000     1.1800     2.1150 c3         1 G65       0.145800
      7 NBD         -0.4870     1.1800     0.7280 n3         1 G65      -0.539600
      8 CBC         -1.9540     1.2570     0.6850 c3         1 G65       0.207100
      9 CAZ         -2.4030     1.5010    -0.7310 ca         1 G65      -0.063300
     10 CBA         -2.6650     0.4300    -1.5670 ca         1 G65      -0.101500
     11 CBB         -3.0770     0.6460    -2.8650 ca         1 G65      -0.057000
     12 CAY         -2.5580     2.7980    -1.1910 ca         1 G65      -0.101500
     13 CAX         -2.9700     3.0290    -2.4870 ca         1 G65      -0.057000
     14 CAV         -3.2300     1.9520    -3.3360 ca         1 G65      -0.165600
     15 CAU         -3.6710     2.1920    -4.7260 c          1 G65       0.590700
     16 OAW         -3.8080     3.3300    -5.1320 o          1 G65      -0.636100
     17 NAT         -3.9210     1.1500    -5.5440 ns         1 G65      -0.037100
     18 CAO         -4.4310     1.3740    -6.8260 ca         1 G65      -0.068400
     19 CAN         -5.3470     0.4870    -7.3740 ca         1 G65      -0.162000
     20 CAP         -4.0280     2.4890    -7.5510 ca         1 G65      -0.107000
     21 CAQ         -4.5310     2.7110    -8.8180 ca         1 G65      -0.062000
     22 CAR         -5.4390     1.8270    -9.3690 ca         1 G65      -0.118300
     23 CAS         -5.9850     2.0730   -10.7510 c3         1 G65       0.063200
     24 CAM         -5.8520     0.7140    -8.6470 ca         1 G65      -0.005400
     25 NAL         -6.7740    -0.1770    -9.2030 nu         1 G65      -0.267300
     26 CAJ         -7.8060    -0.6800    -8.4260 cc         1 G65       0.574300
     27 NAK         -8.6480    -1.5940    -8.7990 nd         1 G65      -0.658000
     28 SAI         -8.1730    -0.1850    -6.7770 ss         1 G65      -0.340300
     29 CAH         -9.5160    -1.3240    -6.7290 cc         1 G65      -0.155400
     30 CAG         -9.5760    -1.9550    -7.9150 cd         1 G65       0.441800
     31 CAF        -10.5990    -2.9860    -8.2140 ca         1 G65      -0.247800
     32 CAA        -10.6280    -3.6180    -9.4600 ca         1 G65      -0.040000
     33 CAB        -11.6020    -4.5730    -9.6900 ca         1 G65      -0.227300
     34 CAC        -12.5090    -4.8690    -8.6880 ca         1 G65       0.405200
     35 NAD        -12.4580    -4.2550    -7.5220 nb         1 G65      -0.584000
     36 CAE        -11.5450    -3.3450    -7.2550 ca         1 G65       0.409200
     37 H1          -0.3600    -0.8980     0.4880 h1         1 G65       0.017200
     38 H2          -0.3600     0.0320    -1.0210 h1         1 G65       0.017200
     39 H3           1.8910    -0.8860    -0.5080 h1         1 G65       0.014450
     40 H4           1.8910     0.8860    -0.5080 h1         1 G65       0.014450
     41 H6           3.8150    -0.9710     0.9140 h1         1 G65       0.000700
     42 H7           3.8150    -0.1120     2.4610 h1         1 G65       0.000700
     43 H8           3.9060     0.7960     0.9450 h1         1 G65       0.000700
     44 H9           1.8900     2.0780     1.6240 h1         1 G65       0.014450
     45 H10          1.8910     1.1500     3.1340 h1         1 G65       0.014450
     46 H11         -0.3590     0.2940     2.6230 h1         1 G65       0.017200
     47 H12         -0.3600     2.0660     2.6230 h1         1 G65       0.017200
     48 H14         -2.2910     2.0700     1.3170 h1         1 G65       0.014700
     49 H15         -2.3750     0.3240     1.0420 h1         1 G65       0.014700
     50 H16         -2.5460    -0.5830    -1.2000 ha         1 G65       0.112500
     51 H17         -3.2790    -0.1940    -3.5180 ha         1 G65       0.114000
     52 H18         -2.3560     3.6330    -0.5310 ha         1 G65       0.112500
     53 H19         -3.0890     4.0450    -2.8460 ha         1 G65       0.114000
     54 H20         -3.7090     0.2180    -5.2460 hn         1 G65       0.175500
     55 H21         -5.6680    -0.3800    -6.8090 ha         1 G65       0.133000
     56 H22         -3.3160     3.1840    -7.1220 ha         1 G65       0.148000
     57 H23         -4.2140     3.5810    -9.3800 ha         1 G65       0.111000
     58 H24         -5.7000     1.2560   -11.4030 hc         1 G65       0.010033
     59 H25         -7.0660     2.1390   -10.7060 hc         1 G65       0.010033
     60 H26         -5.5830     3.0020   -11.1380 hc         1 G65       0.010033
     61 H27         -6.6870    -0.4550   -10.1600 hn         1 G65       0.296800
     62 H28        -10.1820    -1.4850    -5.8900 h4         1 G65       0.167000
     63 H29         -9.9050    -3.3670   -10.2270 ha         1 G65       0.126000
     64 H30        -11.6540    -5.0840   -10.6440 ha         1 G65       0.113000
     65 H31        -13.2750    -5.6150    -8.8650 h4         1 G65      -0.021900
     66 H32        -11.5360    -2.8630    -6.2850 h4         1 G65      -0.016900
@<TRIPOS>BOND
     1     1     2 1   
     2     1     7 1   
     3     1    37 1   
     4     1    38 1   
     5     2     3 1   
     6     2    39 1   
     7     2    40 1   
     8     3     4 1   
     9     3     5 1   
    10     4    41 1   
    11     4    42 1   
    12     4    43 1   
    13     5     6 1   
    14     5    44 1   
    15     5    45 1   
    16     6     7 1   
    17     6    46 1   
    18     6    47 1   
    19     7     8 1   
    20     8     9 1   
    21     8    48 1   
    22     8    49 1   
    23     9    10 ar  
    24     9    12 ar  
    25    10    11 ar  
    26    10    50 1   
    27    11    14 ar  
    28    11    51 1   
    29    12    13 ar  
    30    12    52 1   
    31    13    14 ar  
    32    13    53 1   
    33    14    15 1   
    34    15    16 2   
    35    15    17 1   
    36    17    18 1   
    37    17    54 1   
    38    18    19 ar  
    39    18    20 ar  
    40    19    24 ar  
    41    19    55 1   
    42    20    21 ar  
    43    20    56 1   
    44    21    22 ar  
    45    21    57 1   
    46    22    23 1   
    47    22    24 ar  
    48    23    58 1   
    49    23    59 1   
    50    23    60 1   
    51    24    25 1   
    52    25    26 1   
    53    25    61 1   
    54    26    27 2   
    55    26    28 1   
    56    27    30 1   
    57    28    29 1   
    58    29    30 2   
    59    29    62 1   
    60    30    31 1   
    61    31    32 ar  
    62    31    36 ar  
    63    32    33 ar  
    64    32    63 1   
    65    33    34 ar  
    66    33    64 1   
    67    34    35 ar  
    68    34    65 1   
    69    35    36 ar  
    70    36    66 1   
@<TRIPOS>SUBSTRUCTURE
     1 G65         1 TEMP              0 ****  ****    0 ROOT
