@<TRIPOS>MOLECULE
molecule
   91    97     1     0     0
SMALL
bcc


@<TRIPOS>ATOM
      1 O2           0.0000     0.0000     0.0000 o          1 G67      -0.584100
      2 C21          1.2130     0.0000     0.0000 c          1 G67       0.667100
      3 N5           1.8870     0.0000     1.1670 n          1 G67      -0.499800
      4 C26          3.3560     0.0060     1.2020 c3         1 G67       0.141200
      5 C25          3.8290    -0.9690     2.2440 c2         1 G67      -0.193200
      6 C24          3.0330    -1.5310     3.1210 ce         1 G67      -0.050400
      7 C27          3.6340    -2.4580     4.1030 ca         1 G67      -0.054800
      8 C32          4.5440    -1.9800     5.0480 ca         1 G67      -0.126500
      9 C31          5.1030    -2.8430     5.9630 ca         1 G67      -0.094500
     10 C30          4.7600    -4.1960     5.9460 ca         1 G67      -0.109500
     11 C33          5.3640    -5.1260     6.9320 cc         1 G67       0.627500
     12 N8           5.1210    -6.4160     7.0170 nd         1 G67      -0.540800
     13 N7           5.8980    -6.9030     8.0800 na         1 G67      -0.069400
     14 C35          5.9620    -8.2870     8.5560 c3         1 G67       0.056600
     15 C34          6.5720    -5.8500     8.5770 cd         1 G67       0.449400
     16 N6           6.2500    -4.7920     7.8810 nc         1 G67      -0.758000
     17 C29          3.8520    -4.6740     5.0020 ca         1 G67      -0.094500
     18 C28          3.2870    -3.8100     4.0900 ca         1 G67      -0.126500
     19 C23          1.5530    -1.2970     3.1950 c3         1 G67      -0.056200
     20 C22          1.1800    -0.0010     2.4600 c3         1 G67       0.110000
     21 C20          1.9670    -0.0050    -1.3050 c3         1 G67       0.076800
     22 N4           1.0120    -0.0110    -2.4210 n3         1 G67      -0.663600
     23 C18          0.3860    -1.3480    -2.5810 c3         1 G67       0.144800
     24 C17         -0.1320    -1.3640    -4.0350 c3         1 G67      -0.075400
     25 C19          1.7040     0.2250    -3.7150 c3         1 G67       0.168800
     26 C16          0.7350    -0.3300    -4.7810 c3         1 G67      -0.049900
     27 S            1.6620    -1.1320    -6.1190 ss         1 G67      -0.348200
     28 C36          0.3520    -1.8520    -7.1470 c3         1 G67       0.004000
     29 C15         -0.1280     0.7770    -5.3300 c          1 G67       0.674100
     30 O1          -1.2810     0.8830    -4.9710 o          1 G67      -0.580100
     31 N3           0.3830     1.6490    -6.2220 ns         1 G67      -0.465100
     32 C11         -0.4610     2.5590    -6.8750 ca         1 G67       0.020600
     33 C10         -0.0990     3.0690    -8.1070 ca         1 G67      -0.108000
     34 C12         -1.6630     2.9390    -6.2800 ca         1 G67      -0.100000
     35 C13         -2.5010     3.8200    -6.9030 ca         1 G67      -0.143000
     36 C14         -2.1600     4.3480    -8.1450 ca         1 G67      -0.032200
     37 C9          -0.9470     3.9740    -8.7500 ca         1 G67      -0.223900
     38 N1          -2.7760     5.2300    -8.9980 na         1 G67      -0.052100
     39 N2          -1.9750     5.4130   -10.1300 nc         1 G67      -0.496100
     40 C8          -0.8840     4.6930   -10.0280 cd         1 G67       0.426500
     41 C6           0.2120     4.6170   -11.0230 ca         1 G67      -0.259200
     42 C5          -0.0650     4.6940   -12.3930 ca         1 G67      -0.036000
     43 C4           0.9900     4.6190   -13.2810 ca         1 G67      -0.274300
     44 C7           1.5340     4.4740   -10.6080 ca         1 G67       0.477200
     45 N            2.5110     4.4070   -11.4890 nb         1 G67      -0.776000
     46 C3           2.2810     4.4710   -12.7910 ca         1 G67       0.666600
     47 O            3.3210     4.3970   -13.6590 os         1 G67      -0.437100
     48 C1           4.6260     4.2440   -13.0960 c3         1 G67       0.140100
     49 C2           4.9470     2.7560   -12.9450 c3         1 G67      -0.103100
     50 C            5.6580     4.8980   -14.0160 c3         1 G67      -0.103100
     51 H29          3.7410    -0.2880     0.2320 h1         1 G67       0.054200
     52 H30          3.7080     0.9990     1.4510 h1         1 G67       0.054200
     53 H28          4.8830    -1.2200     2.2710 ha         1 G67       0.136000
     54 H34          4.8100    -0.9310     5.0610 ha         1 G67       0.137000
     55 H33          5.8100    -2.4730     6.6960 ha         1 G67       0.152000
     56 H36          5.1990    -8.8750     8.0610 h1         1 G67       0.058367
     57 H37          5.7960    -8.3090     9.6270 h1         1 G67       0.058367
     58 H38          6.9380    -8.7010     8.3340 h1         1 G67       0.058367
     59 H35          7.2660    -5.8750     9.4080 h5         1 G67       0.069100
     60 H32          3.5840    -5.7240     4.9910 ha         1 G67       0.152000
     61 H31          2.5810    -4.1810     3.3570 ha         1 G67       0.137000
     62 H27          1.2560    -1.2160     4.2330 hc         1 G67       0.063700
     63 H26          1.0370    -2.1300     2.7330 hc         1 G67       0.063700
     64 H25          1.4900     0.8560     3.0470 h1         1 G67       0.067200
     65 H24          0.1100     0.0300     2.2920 h1         1 G67       0.067200
     66 H23          2.5900    -0.8900    -1.3590 h1         1 G67       0.053700
     67 H22          2.5890     0.8800    -1.3660 h1         1 G67       0.053700
     68 H19         -0.4380    -1.4620    -1.8870 h1         1 G67       0.058200
     69 H18          1.1230    -2.1280    -2.4350 h1         1 G67       0.058200
     70 H17         -1.1750    -1.0710    -4.0640 hc         1 G67       0.076200
     71 H16          0.0010    -2.3480    -4.4690 hc         1 G67       0.076200
     72 H21          2.6430    -0.3140    -3.7430 h1         1 G67       0.055700
     73 H20          1.8650     1.2850    -3.8680 h1         1 G67       0.055700
     74 H41          0.2640    -2.9100    -6.9310 h1         1 G67       0.067700
     75 H39         -0.5880    -1.3600    -6.9310 h1         1 G67       0.067700
     76 H40          0.5990    -1.7170    -8.1930 h1         1 G67       0.067700
     77 H15          1.3700     1.6780    -6.3850 hn         1 G67       0.335500
     78 H12          0.7590     2.6660    -8.6300 ha         1 G67       0.138000
     79 H13         -1.9330     2.5370    -5.3110 ha         1 G67       0.193000
     80 H14         -3.4320     4.1070    -6.4300 ha         1 G67       0.136000
     81 H           -3.6600     5.6700    -8.8370 hn         1 G67       0.333700
     82 H10         -1.0820     4.8100   -12.7470 ha         1 G67       0.156000
     83 H9           0.8120     4.6730   -14.3480 ha         1 G67       0.153000
     84 H11          1.7620     4.4180    -9.5500 h4         1 G67       0.030100
     85 H5           4.6580     4.7200   -12.1230 h1         1 G67       0.073700
     86 H8           6.0010     2.6340   -12.7260 hc         1 G67       0.045033
     87 H7           4.3600     2.3400   -12.1360 hc         1 G67       0.045033
     88 H6           4.7080     2.2400   -13.8670 hc         1 G67       0.045033
     89 H3           5.4050     5.9410   -14.1600 hc         1 G67       0.045033
     90 H2           6.6410     4.8240   -13.5670 hc         1 G67       0.045033
     91 H4           5.6600     4.3920   -14.9740 hc         1 G67       0.045033
@<TRIPOS>BOND
     1    38    39 1
     2    38    36 1
     3     1     2 2
     4     4     5 1
     5     4     3 1
     6    35    36 ar
     7    35    34 ar
     8     5     6 2
     9    39    40 2
    10    36    37 ar
    11    18    17 ar
    12    18     7 ar
    13    17    10 ar
    14    34    32 ar
    15    16    15 2
    16    16    11 1
    17    40    37 1
    18    40    41 1
    19    42    41 ar
    20    42    43 ar
    21    37    33 ar
    22     2     3 1
    23     2    21 1
    24     3    20 1
    25    15    13 1
    26    32    33 ar
    27    32    31 1
    28     6     7 1
    29     6    19 1
    30    41    44 ar
    31    43    46 ar
    32    24    23 1
    33    24    26 1
    34     7     8 ar
    35    23    22 1
    36    50    48 1
    37    10    11 1
    38    10     9 ar
    39    11    12 2
    40    30    29 2
    41    31    29 1
    42    22    21 1
    43    22    25 1
    44    29    26 1
    45    20    19 1
    46    48    47 1
    47    48    49 1
    48    13    12 1
    49    13    14 1
    50    44    45 ar
    51    46    45 ar
    52    46    47 1
    53    26    25 1
    54    26    27 1
    55     8     9 ar
    56    27    28 1
    57     4    51 1
    58     4    52 1
    59     5    53 1
    60     8    54 1
    61     9    55 1
    62    14    56 1
    63    14    57 1
    64    14    58 1
    65    15    59 1
    66    17    60 1
    67    18    61 1
    68    19    62 1
    69    19    63 1
    70    20    64 1
    71    20    65 1
    72    21    66 1
    73    21    67 1
    74    23    68 1
    75    23    69 1
    76    24    70 1
    77    24    71 1
    78    25    72 1
    79    25    73 1
    80    28    74 1
    81    28    75 1
    82    28    76 1
    83    31    77 1
    84    33    78 1
    85    34    79 1
    86    35    80 1
    87    38    81 1
    88    42    82 1
    89    43    83 1
    90    44    84 1
    91    48    85 1
    92    49    86 1
    93    49    87 1
    94    49    88 1
    95    50    89 1
    96    50    90 1
    97    50    91 1
@<TRIPOS>SUBSTRUCTURE
     1 G67         1 TEMP              0 ****  ****    0 ROOT
