@<TRIPOS>MOLECULE
G67
   91    97     1     0     0
SMALL
bcc


@<TRIPOS>ATOM
      1 O2           0.0000     0.0000     0.0000 o          1 G67      -0.623100
      2 C21          1.2130     0.0000     0.0000 c          1 G67       0.588100
      3 N5           1.8870     0.0000     1.1670 n          1 G67      -0.167800
      4 C26          3.3560     0.0060     1.2020 c3         1 G67       0.102200
      5 C25          3.8290    -0.9690     2.2440 c2         1 G67      -0.183200
      6 C24          3.0330    -1.5310     3.1210 ce         1 G67      -0.053400
      7 C27          3.6340    -2.4580     4.1030 ca         1 G67      -0.051800
      8 C32          4.5440    -1.9800     5.0480 ca         1 G67      -0.102500
      9 C31          5.1030    -2.8430     5.9630 ca         1 G67      -0.068500
     10 C30          4.7600    -4.1960     5.9460 ca         1 G67      -0.121500
     11 C33          5.3640    -5.1260     6.9320 cc         1 G67       0.635500
     12 N8           5.1210    -6.4160     7.0170 nd         1 G67      -0.677800
     13 N7           5.8980    -6.9030     8.0800 na         1 G67       0.336600
     14 C35          5.9620    -8.2870     8.5560 c3         1 G67       0.032600
     15 C34          6.5720    -5.8500     8.5770 cd         1 G67       0.301400
     16 N6           6.2500    -4.7920     7.8810 nc         1 G67      -0.688000
     17 C29          3.8520    -4.6740     5.0020 ca         1 G67      -0.068500
     18 C28          3.2870    -3.8100     4.0900 ca         1 G67      -0.102500
     19 C23          1.5530    -1.2970     3.1950 c3         1 G67       0.014800
     20 C22          1.1800    -0.0010     2.4600 c3         1 G67       0.055000
     21 C20          1.9670    -0.0050    -1.3050 c3         1 G67       0.077800
     22 N4           1.0120    -0.0110    -2.4210 n3         1 G67      -0.498600
     23 C18          0.3860    -1.3480    -2.5810 c3         1 G67       0.146800
     24 C17         -0.1320    -1.3640    -4.0350 c3         1 G67      -0.035400
     25 C19          1.7040     0.2250    -3.7150 c3         1 G67       0.178800
     26 C16          0.7350    -0.3300    -4.7810 c3         1 G67      -0.044900
     27 S            1.6620    -1.1320    -6.1190 ss         1 G67      -0.395200
     28 C36          0.3520    -1.8520    -7.1470 c3         1 G67       0.112000
     29 C15         -0.1280     0.7770    -5.3300 c          1 G67       0.575100
     30 O1          -1.2810     0.8830    -4.9710 o          1 G67      -0.615100
     31 N3           0.3830     1.6490    -6.2220 ns         1 G67      -0.016100
     32 C11         -0.4610     2.5590    -6.8750 ca         1 G67      -0.126400
     33 C10         -0.0990     3.0690    -8.1070 ca         1 G67      -0.071000
     34 C12         -1.6630     2.9390    -6.2800 ca         1 G67      -0.092000
     35 C13         -2.5010     3.8200    -6.9030 ca         1 G67      -0.098000
     36 C14         -2.1600     4.3480    -8.1450 ca         1 G67      -0.195200
     37 C9          -0.9470     3.9740    -8.7500 ca         1 G67      -0.229900
     38 N1          -2.7760     5.2300    -8.9980 na         1 G67       0.415900
     39 N2          -1.9750     5.4130   -10.1300 nc         1 G67      -0.632100
     40 C8          -0.8840     4.6930   -10.0280 cd         1 G67       0.457500
     41 C6           0.2120     4.6170   -11.0230 ca         1 G67      -0.260200
     42 C5          -0.0650     4.6940   -12.3930 ca         1 G67      -0.004000
     43 C4           0.9900     4.6190   -13.2810 ca         1 G67      -0.256300
     44 C7           1.5340     4.4740   -10.6080 ca         1 G67       0.453200
     45 N            2.5110     4.4070   -11.4890 nb         1 G67      -0.667000
     46 C3           2.2810     4.4710   -12.7910 ca         1 G67       0.628600
     47 O            3.3210     4.3970   -13.6590 os         1 G67      -0.421100
     48 C1           4.6260     4.2440   -13.0960 c3         1 G67       0.166100
     49 C2           4.9470     2.7560   -12.9450 c3         1 G67      -0.013600
     50 C            5.6580     4.8980   -14.0160 c3         1 G67      -0.013600
     51 H29          3.7410    -0.2880     0.2320 h1         1 G67       0.024700
     52 H30          3.7080     0.9990     1.4510 h1         1 G67       0.024700
     53 H28          4.8830    -1.2200     2.2710 ha         1 G67       0.116000
     54 H34          4.8100    -0.9310     5.0610 ha         1 G67       0.109000
     55 H33          5.8100    -2.4730     6.6960 ha         1 G67       0.123500
     56 H36          5.1990    -8.8750     8.0610 h1         1 G67       0.023700
     57 H37          5.7960    -8.3090     9.6270 h1         1 G67       0.023700
     58 H38          6.9380    -8.7010     8.3340 h1         1 G67       0.023700
     59 H35          7.2660    -5.8750     9.4080 h5         1 G67       0.023100
     60 H32          3.5840    -5.7240     4.9910 ha         1 G67       0.123500
     61 H31          2.5810    -4.1810     3.3570 ha         1 G67       0.109000
     62 H27          1.2560    -1.2160     4.2330 hc         1 G67       0.032200
     63 H26          1.0370    -2.1300     2.7330 hc         1 G67       0.032200
     64 H25          1.4900     0.8560     3.0470 h1         1 G67       0.038200
     65 H24          0.1100     0.0300     2.2920 h1         1 G67       0.038200
     66 H23          2.5900    -0.8900    -1.3590 h1         1 G67       0.025200
     67 H22          2.5890     0.8800    -1.3660 h1         1 G67       0.025200
     68 H19         -0.4380    -1.4620    -1.8870 h1         1 G67       0.028200
     69 H18          1.1230    -2.1280    -2.4350 h1         1 G67       0.028200
     70 H17         -1.1750    -1.0710    -4.0640 hc         1 G67       0.050200
     71 H16          0.0010    -2.3480    -4.4690 hc         1 G67       0.050200
     72 H21          2.6430    -0.3140    -3.7430 h1         1 G67       0.024700
     73 H20          1.8650     1.2850    -3.8680 h1         1 G67       0.024700
     74 H41          0.2640    -2.9100    -6.9310 h1         1 G67       0.039700
     75 H39         -0.5880    -1.3600    -6.9310 h1         1 G67       0.039700
     76 H40          0.5990    -1.7170    -8.1930 h1         1 G67       0.039700
     77 H15          1.3700     1.6780    -6.3850 hn         1 G67       0.184500
     78 H12          0.7590     2.6660    -8.6300 ha         1 G67       0.114000
     79 H13         -1.9330     2.5370    -5.3110 ha         1 G67       0.175000
     80 H14         -3.4320     4.1070    -6.4300 ha         1 G67       0.107000
     81 H           -3.6600     5.6700    -8.8370 hn         1 G67       0.153700
     82 H10         -1.0820     4.8100   -12.7470 ha         1 G67       0.121000
     83 H9           0.8120     4.6730   -14.3480 ha         1 G67       0.127000
     84 H11          1.7620     4.4180    -9.5500 h4         1 G67      -0.013900
     85 H5           4.6580     4.7200   -12.1230 h1         1 G67       0.039700
     86 H8           6.0010     2.6340   -12.7260 hc         1 G67       0.011033
     87 H7           4.3600     2.3400   -12.1360 hc         1 G67       0.011033
     88 H6           4.7080     2.2400   -13.8670 hc         1 G67       0.011033
     89 H3           5.4050     5.9410   -14.1600 hc         1 G67       0.011033
     90 H2           6.6410     4.8240   -13.5670 hc         1 G67       0.011033
     91 H4           5.6600     4.3920   -14.9740 hc         1 G67       0.011033
@<TRIPOS>BOND
     1     1     2 2   
     2     2     3 1   
     3     2    21 1   
     4     3     4 1   
     5     3    20 1   
     6     4     5 1   
     7     4    51 1   
     8     4    52 1   
     9     5     6 2   
    10     5    53 1   
    11     6     7 1   
    12     6    19 1   
    13     7     8 ar  
    14     7    18 ar  
    15     8     9 ar  
    16     8    54 1   
    17     9    10 ar  
    18     9    55 1   
    19    10    11 1   
    20    10    17 ar  
    21    11    12 2   
    22    11    16 1   
    23    12    13 1   
    24    13    14 1   
    25    13    15 1   
    26    14    56 1   
    27    14    57 1   
    28    14    58 1   
    29    15    16 2   
    30    15    59 1   
    31    17    18 ar  
    32    17    60 1   
    33    18    61 1   
    34    19    20 1   
    35    19    62 1   
    36    19    63 1   
    37    20    64 1   
    38    20    65 1   
    39    21    22 1   
    40    21    66 1   
    41    21    67 1   
    42    22    23 1   
    43    22    25 1   
    44    23    24 1   
    45    23    68 1   
    46    23    69 1   
    47    24    26 1   
    48    24    70 1   
    49    24    71 1   
    50    25    26 1   
    51    25    72 1   
    52    25    73 1   
    53    26    27 1   
    54    26    29 1   
    55    27    28 1   
    56    28    74 1   
    57    28    75 1   
    58    28    76 1   
    59    29    30 2   
    60    29    31 1   
    61    31    32 1   
    62    31    77 1   
    63    32    33 ar  
    64    32    34 ar  
    65    33    37 ar  
    66    33    78 1   
    67    34    35 ar  
    68    34    79 1   
    69    35    36 ar  
    70    35    80 1   
    71    36    37 ar  
    72    36    38 1   
    73    37    40 1   
    74    38    39 1   
    75    38    81 1   
    76    39    40 2   
    77    40    41 1   
    78    41    42 ar  
    79    41    44 ar  
    80    42    43 ar  
    81    42    82 1   
    82    43    46 ar  
    83    43    83 1   
    84    44    45 ar  
    85    44    84 1   
    86    45    46 ar  
    87    46    47 1   
    88    47    48 1   
    89    48    49 1   
    90    48    50 1   
    91    48    85 1   
    92    49    86 1   
    93    49    87 1   
    94    49    88 1   
    95    50    89 1   
    96    50    90 1   
    97    50    91 1   
@<TRIPOS>SUBSTRUCTURE
     1 G67         1 TEMP              0 ****  ****    0 ROOT
