@<TRIPOS>MOLECULE
molecule
   50    52     1     0     0
SMALL
bcc


@<TRIPOS>ATOM
      1 O1           0.0000     0.0000     0.0000 oh         1 G69      -0.618800
      2 C3           1.4290     0.0000     0.0000 c3         1 G69       0.218700
      3 C6           1.9310     0.0000     1.4220 cc         1 G69      -0.278600
      4 C7           1.1650    -0.0060     2.5360 cd         1 G69      -0.078300
      5 N9           1.9910    -0.0040     3.6030 na         1 G69       0.079400
      6 C10          1.5810    -0.0090     5.0100 c3         1 G69       0.127600
      7 C13          2.2310    -1.1710     5.7170 ca         1 G69      -0.123300
      8 C14          3.4650    -1.0130     6.3170 ca         1 G69      -0.073000
      9 C16          4.0640    -2.0780     6.9680 ca         1 G69      -0.101300
     10 C17          5.3910    -2.1660     7.6920 c3         1 G69      -0.042100
     11 C20          5.6890    -3.6740     7.8100 c3         1 G69       0.244500
     12 N22          6.3630    -3.9750     9.0740 n7         1 G69      -0.905100
     13 S24          7.5120    -5.1670     9.1380 s6         1 G69       1.329900
     14 C25          8.8560    -4.5560     8.0850 c3         1 G69      -0.211900
     15 C27          9.3780    -3.2300     8.6430 c3         1 G69      -0.070100
     16 C31          9.9930    -5.5800     8.0620 c3         1 G69      -0.070100
     17 O35          7.9170    -5.1910    10.5000 o          1 G69      -0.628800
     18 O36          6.8830    -6.2920     8.5410 o          1 G69      -0.628800
     19 C37          4.2770    -4.2960     7.7780 c3         1 G69      -0.048100
     20 C40          3.4230    -3.3030     7.0180 ca         1 G69      -0.077300
     21 C41          2.1860    -3.4590     6.4160 ca         1 G69      -0.115000
     22 C43          1.5880    -2.3930     5.7710 ca         1 G69      -0.104000
     23 N45          3.3090     0.0030     3.1280 nd         1 G69      -0.455800
     24 C46          3.2720    -0.0000     1.8210 cc         1 G69       0.251600
     25 C47          4.4670    -0.0000     0.9020 c3         1 G69       0.616600
     26 F48          4.1420    -0.6590    -0.2880 f          1 G69      -0.216300
     27 F49          4.8360     1.3190     0.6190 f          1 G69      -0.216300
     28 F50          5.5330    -0.6600     1.5240 f          1 G69      -0.216300
     29 HO1         -0.3140    -0.0050    -0.8890 ho         1 G69       0.409000
     30 H3           1.7900    -0.8850    -0.5110 h1         1 G69       0.037200
     31 H3A          1.7900     0.8850    -0.5110 h1         1 G69       0.037200
     32 H7           0.0850    -0.0880     2.5660 h4         1 G69       0.192000
     33 H10          0.5040    -0.1050     5.0720 h1         1 G69       0.070200
     34 H10A         1.8900     0.9170     5.4790 h1         1 G69       0.070200
     35 H14          3.9630    -0.0520     6.2820 ha         1 G69       0.139000
     36 H17          6.1650    -1.6750     7.1160 hc         1 G69       0.059700
     37 H17A         5.3090    -1.7230     8.6780 hc         1 G69       0.059700
     38 H20          6.2740    -4.0140     6.9640 h1         1 G69       0.070700
     39 HN22         6.1050    -3.4840     9.9070 hn         1 G69       0.457800
     40 H25          8.4860    -4.4040     7.0780 h1         1 G69       0.098700
     41 H27          9.2460    -3.2130     9.7180 hc         1 G69       0.049867
     42 H27A         8.8270    -2.4090     8.1990 hc         1 G69       0.049867
     43 H27B        10.4300    -3.1270     8.4060 hc         1 G69       0.049867
     44 H31          9.6060    -6.5410     7.7440 hc         1 G69       0.049867
     45 H31A        10.4160    -5.6720     9.0550 hc         1 G69       0.049867
     46 H31B        10.7600    -5.2530     7.3710 hc         1 G69       0.049867
     47 H37          4.3060    -5.2360     7.2400 hc         1 G69       0.072700
     48 H37A         3.9020    -4.3970     8.7890 hc         1 G69       0.072700
     49 H41          1.6820    -4.4170     6.4580 ha         1 G69       0.136000
     50 H43          0.5930    -2.5010     5.3570 ha         1 G69       0.132000
@<TRIPOS>BOND
     1     2     1 1
     2     1    29 1
     3     3     2 1
     4     2    30 1
     5     2    31 1
     6     4     3 2
     7     3    24 1
     8     5     4 1
     9     4    32 1
    10     6     5 1
    11     5    23 1
    12     6     7 1
    13     6    33 1
    14     6    34 1
    15    22     7 ar
    16     7     8 ar
    17     8     9 ar
    18     8    35 1
    19    20     9 ar
    20     9    10 1
    21    10    11 1
    22    10    36 1
    23    10    37 1
    24    19    11 1
    25    11    12 1
    26    11    38 1
    27    12    13 1
    28    12    39 1
    29    17    13 2
    30    13    14 1
    31    13    18 2
    32    16    14 1
    33    14    15 1
    34    14    40 1
    35    15    41 1
    36    15    42 1
    37    15    43 1
    38    16    44 1
    39    16    45 1
    40    16    46 1
    41    20    19 1
    42    19    47 1
    43    19    48 1
    44    21    20 ar
    45    22    21 ar
    46    21    49 1
    47    22    50 1
    48    23    24 2
    49    24    25 1
    50    26    25 1
    51    25    27 1
    52    25    28 1
@<TRIPOS>SUBSTRUCTURE
     1 G69         1 TEMP              0 ****  ****    0 ROOT
