@<TRIPOS>MOLECULE
G6A
   48    51     1     0     0
SMALL
bcc


@<TRIPOS>ATOM
      1 C26         0.3550    0.0000   -0.0020 c3        1 G6A     -0.131400
      2 C23        12.8180   -4.3980    7.0820 cx        1 G6A     -0.101900
      3 C22        12.1680   -4.2450    5.7420 cx        1 G6A     -0.101900
      4 C19        11.3900   -3.8990    6.9950 cx        1 G6A     -0.002500
      5 C25         1.8010   -0.2160   -0.1580 cc        1 G6A      0.479700
      6 O21         2.6150   -0.0430    0.9740 os        1 G6A     -0.391800
      7 N24         2.5760   -0.5660   -1.2070 nd        1 G6A     -0.344000
      8 N20         3.8350   -0.6260   -0.8180 nd        1 G6A     -0.324000
      9 C18         3.9110   -0.3170    0.4960 cc        1 G6A      0.481900
     10 C15         5.0260   -0.2320    1.4130 ca        1 G6A     -0.096500
     11 C12         4.8150    0.0840    2.7640 ca        1 G6A     -0.100000
     12 C6          5.8980    0.1570    3.6310 ca        1 G6A     -0.115000
     13 C10         6.3240   -0.4670    0.9470 ca        1 G6A     -0.091000
     14 C5          7.4190   -0.3900    1.8180 ca        1 G6A     -0.059300
     15 C11         8.7710   -0.6520    1.2670 c3        1 G6A     -0.063800
     16 C2          7.2030   -0.0750    3.1690 cp        1 G6A     -0.069000
     17 C1          8.3080    0.0040    4.1330 cp        1 G6A     -0.028000
     18 C3          8.4900   -1.0510    5.0330 ca        1 G6A     -0.031000
     19 C7          9.5290   -1.0080    5.9770 ca        1 G6A     -0.220600
     20 C13         9.6410   -2.1390    6.8920 c         1 G6A      0.586700
     21 O17         8.7630   -2.8530    7.3510 o         1 G6A     -0.418100
     22 N16        11.0630   -2.5030    7.3290 n4        1 G6A     -0.647800
     23 C14        10.3720    0.1130    6.0400 ca        1 G6A     -0.092000
     24 C8         10.1810    1.1630    5.1540 ca        1 G6A     -0.132000
     25 C4          9.1590    1.1250    4.1900 ca        1 G6A      0.025700
     26 C9          8.9800    2.2640    3.2630 c3        1 G6A     -0.083800
     27 H26        -0.1970   -0.9360   -0.2720 hc        1 G6A      0.080700
     28 H26A        0.1170    0.2790    1.0540 hc        1 G6A      0.080700
     29 H26B        0.0230    0.8220   -0.6860 hc        1 G6A      0.080700
     30 H22        12.5160   -3.4430    5.0640 hc        1 G6A      0.110450
     31 H22A       11.8470   -5.1440    5.1780 hc        1 G6A      0.110450
     32 H19        10.5580   -4.5690    7.3220 hx        1 G6A      0.158700
     33 H12         3.7930    0.2710    3.1310 ha        1 G6A      0.162000
     34 H6          5.7300    0.4040    4.6910 ha        1 G6A      0.142000
     35 H10         6.4960   -0.7170   -0.1140 ha        1 G6A      0.170000
     36 H11         8.9820    0.0470    0.4190 hc        1 G6A      0.052367
     37 H11A        9.5670   -0.5190    2.0390 hc        1 G6A      0.052367
     38 H11B        8.8290   -1.6990    0.8750 hc        1 G6A      0.052367
     39 H3          7.8090   -1.9200    5.0010 ha        1 G6A      0.170000
     40 HN16       11.7330   -1.8710    6.8790 hn        1 G6A      0.454800
     41 H14        11.1590    0.2010    6.8030 ha        1 G6A      0.128000
     42 H8         10.8360    2.0490    5.2110 ha        1 G6A      0.165000
     43 H9          8.0430    2.8220    3.5230 hc        1 G6A      0.074367
     44 H9A         9.8410    2.9760    3.3130 hc        1 G6A      0.074367
     45 H9B         8.8780    1.8920    2.2100 hc        1 G6A      0.074367
     46 H23        13.6330   -3.7060    7.3660 hc        1 G6A      0.110450
     47 H162       11.1330   -2.3950    8.3480 hn        1 G6A      0.454800
     48 H23A       12.9760   -5.4090    7.5070 hc        1 G6A      0.110450
@<TRIPOS>BOND
     1    1    5 1
     2    1   27 1
     3    1   28 1
     4    1   29 1
     5    2    3 1
     6    2    4 1
     7    2   46 1
     8    2   48 1
     9    3    4 1
    10    3   30 1
    11    3   31 1
    12    4   22 1
    13    4   32 1
    14    5    6 1
    15    5    7 2
    16    6    9 1
    17    7    8 1
    18    8    9 2
    19    9   10 1
    20   10   11 ar
    21   10   13 ar
    22   11   12 ar
    23   11   33 1
    24   12   16 ar
    25   12   34 1
    26   13   14 ar
    27   13   35 1
    28   14   15 1
    29   14   16 ar
    30   15   36 1
    31   15   37 1
    32   15   38 1
    33   16   17 1
    34   17   18 ar
    35   17   25 ar
    36   18   19 ar
    37   18   39 1
    38   19   20 1
    39   19   23 ar
    40   20   21 2
    41   20   22 1
    42   22   40 1
    43   22   47 1
    44   23   24 ar
    45   23   41 1
    46   24   25 ar
    47   24   42 1
    48   25   26 1
    49   26   43 1
    50   26   44 1
    51   26   45 1
@<TRIPOS>SUBSTRUCTURE
     1 G6A         1 TEMP              0 ****  ****    0 ROOT
