@<TRIPOS>MOLECULE
molecule
   59    62     1     0     0
SMALL
bcc


@<TRIPOS>ATOM
      1 O58          0.0000     0.0000     0.0000 o          1 G6F      -0.846800
      2 C48          1.3420     0.0000     0.0000 c          1 G6F       0.884600
      3 O55          1.9470     0.0000     1.0460 o          1 G6F      -0.846800
      4 C47          2.0950     0.0010    -1.3060 c3         1 G6F      -0.271400
      5 C46          3.6000     0.0020    -1.0270 c3         1 G6F      -0.000100
      6 C42          4.3530     0.0030    -2.3310 ca         1 G6F      -0.025300
      7 C41          4.6970     1.1990    -2.9270 ca         1 G6F      -0.115000
      8 C43          4.7040    -1.1960    -2.9280 ca         1 G6F      -0.109000
      9 C44          5.3950    -1.2020    -4.1250 ca         1 G6F      -0.139000
     10 C45          5.7390    -0.0110    -4.7330 ca         1 G6F      -0.155000
     11 C34          5.3940     1.1990    -4.1350 cp         1 G6F      -0.113000
     12 C20          5.7600     2.4820    -4.7830 cp         1 G6F      -0.007000
     13 C19          5.4150     3.6910    -4.1850 ca         1 G6F      -0.168000
     14 C18          5.7590     4.8840    -4.7930 ca         1 G6F       0.152900
     15 F35          5.4250     6.0580    -4.2150 f          1 G6F      -0.127900
     16 C17          6.4480     4.8760    -5.9960 ca         1 G6F      -0.166000
     17 C21          6.4570     2.4800    -5.9900 ca         1 G6F      -0.191000
     18 C16          6.7930     3.6760    -6.5920 ca         1 G6F      -0.036300
     19 C4           7.5460     3.6760    -7.8980 c3         1 G6F       0.177800
     20 C14          7.9200     5.1100    -8.2780 c3         1 G6F      -0.402700
     21 C36          8.8940     5.6740    -7.2430 c3         1 G6F      -0.112100
     22 C15          8.5830     5.1140    -9.6570 c3         1 G6F      -0.112100
     23 C3           8.7950     2.8420    -7.7640 ce         1 G6F       0.062100
     24 C8           9.6400     3.0560    -6.6290 cg         1 G6F       0.145500
     25 N9          10.2990     3.2150    -5.7170 n1         1 G6F      -0.266800
     26 C2           9.1530     1.9030    -8.6640 c2         1 G6F       0.148100
     27 N7          10.3150     1.2100    -8.4360 nz         1 G6F      -0.677400
     28 C5           6.6890     3.0690    -8.9800 cd         1 G6F      -0.400600
     29 C10          5.4120     3.3250    -9.3040 cc         1 G6F       0.071400
     30 C13          4.5050     4.3200    -8.6290 c3         1 G6F      -0.051800
     31 N11          5.0870     2.5260   -10.3470 na         1 G6F      -0.037600
     32 N12          6.2130     1.7520   -10.6720 nc         1 G6F      -0.517800
     33 C6           7.1730     2.0730    -9.8550 cd         1 G6F       0.545600
     34 O1           8.4460     1.5970    -9.7700 os         1 G6F      -0.314400
     35 H2           1.4450    -0.5250    -1.9940 hc         1 G6F       0.058200
     36 H3           1.8050     1.0350    -1.4440 hc         1 G6F       0.058200
     37 H4           3.9860     0.8860    -0.5350 hc         1 G6F       0.091200
     38 H5           3.5080    -1.0690    -0.8920 hc         1 G6F       0.091200
     39 H6           4.9130     2.2510    -2.7880 ha         1 G6F       0.154000
     40 H7           4.6930    -2.1400    -2.3960 ha         1 G6F       0.144000
     41 H8           5.8330    -2.1410    -4.4390 ha         1 G6F       0.118000
     42 H9           6.2400    -0.0320    -5.6930 ha         1 G6F       0.096000
     43 H10          5.2590     3.4230    -3.1470 ha         1 G6F       0.183000
     44 H11          6.4360     5.8390    -6.4910 ha         1 G6F       0.170000
     45 H12          6.5220     1.4180    -6.1930 ha         1 G6F       0.161000
     46 H13          7.9620     5.1880    -9.3580 hc         1 G6F       0.318700
     47 H14          8.4020     6.2920    -6.5020 hc         1 G6F       0.067367
     48 H15          9.3600     4.9650    -6.5700 hc         1 G6F       0.067367
     49 H16          9.6380     6.2920    -7.7320 hc         1 G6F       0.067367
     50 H17          7.7980     5.2430   -10.3920 hc         1 G6F       0.067367
     51 H18          9.1850     6.0090    -9.7580 hc         1 G6F       0.067367
     52 H19          9.1190     4.1730    -9.6090 hc         1 G6F       0.067367
     53 H20         10.2970     0.7310    -7.5580 hn         1 G6F       0.450800
     54 H21         11.2860     1.4500    -8.4450 hn         1 G6F       0.450800
     55 H22          5.0930     4.6670    -7.7880 hc         1 G6F       0.082700
     56 H23          3.4730     3.9930    -8.6000 hc         1 G6F       0.082700
     57 H24          4.6440     5.2280    -9.2030 hc         1 G6F       0.082700
     58 H25          4.3930     2.2360   -11.0070 hn         1 G6F       0.372700
     59 H73         10.5160     0.2850    -8.7610 hn         1 G6F       0.450800
@<TRIPOS>BOND
     1     9     8 ar
     2     9    10 ar
     3     8     6 ar
     4     3     2 1
     5    31    32 1
     6    31    29 1
     7    10    11 ar
     8    32    33 2
     9     6     5 1
    10     6     7 ar
    11    30    29 1
    12     5     4 1
    13    29    28 2
    14     2     1 1
    15     2     4 1
    16    11     7 ar
    17    11    12 1
    18    33    28 1
    19    33    34 1
    20    28    19 1
    21    17    12 ar
    22    17    18 ar
    23    12    13 ar
    24    34    26 1
    25    19    18 1
    26    19    20 1
    27    19    23 1
    28    18    16 ar
    29    22    20 1
    30    13    14 ar
    31    26    23 2
    32    26    27 1
    33    21    20 1
    34    23    24 1
    35    16    14 ar
    36    14    15 1
    37    24    25 3
    38     4    35 1
    39     4    36 1
    40     5    37 1
    41     5    38 1
    42     7    39 1
    43     8    40 1
    44     9    41 1
    45    10    42 1
    46    13    43 1
    47    16    44 1
    48    17    45 1
    49    20    46 1
    50    21    47 1
    51    21    48 1
    52    21    49 1
    53    22    50 1
    54    22    51 1
    55    22    52 1
    56    27    53 1
    57    27    54 1
    58    30    55 1
    59    30    56 1
    60    30    57 1
    61    31    58 1
    62    59    27 1
@<TRIPOS>SUBSTRUCTURE
     1 G6F         1 TEMP              0 ****  ****    0 ROOT
