@<TRIPOS>MOLECULE
G6G
   83    89     1     0     0
SMALL
bcc


@<TRIPOS>ATOM
      1 C1         -2.1920   -2.4420   -0.3940 ca        1 G6G     -0.095000
      2 C2         -0.9700   -2.8210   -0.9280 ca        1 G6G     -0.170000
      3 C3          0.2030   -2.1610   -0.5160 ca        1 G6G      0.123100
      4 C4          0.1400   -1.1230    0.4180 ca        1 G6G     -0.170000
      5 C5         -1.0900   -0.7370    0.9450 ca        1 G6G     -0.095000
      6 C6         -2.2710   -1.3910    0.5500 ca        1 G6G      0.084600
      7 C8          2.5700   -1.9880   -0.6920 c3        1 G6G      0.112700
      8 C10        -3.8780   -0.9960    2.3780 ca        1 G6G      0.894900
      9 C12        -5.5420   -0.8340    4.0110 cp        1 G6G      0.773500
     10 C14        -3.3300   -1.0020    4.6210 ca        1 G6G      0.686900
     11 C41       -17.6180   -7.0490    4.1030 c3        1 G6G      0.166300
     12 C42       -18.5300   -6.5630    5.2460 c3        1 G6G      0.168300
     13 N43       -18.5230   -7.4520    6.3980 n3        1 G6G     -0.732600
     14 C46       -19.3590   -6.9690    7.4730 c3        1 G6G      0.157100
     15 C44       -17.1730   -7.7680    6.8420 c3        1 G6G      0.168300
     16 C45       -16.2640   -8.2550    5.6980 c3        1 G6G      0.166300
     17 N40       -16.2670   -7.3560    4.5530 n3        1 G6G     -0.730600
     18 C36       -13.9760   -7.9510    3.8030 ca        1 G6G     -0.133300
     19 C37       -13.3000   -9.1410    3.5410 ca        1 G6G     -0.086000
     20 C38       -11.9180   -9.3070    3.7890 ca        1 G6G     -0.160000
     21 C35       -13.3100   -6.8180    4.3450 ca        1 G6G     -0.024000
     22 C34       -11.9770   -6.9740    4.5890 ca        1 G6G     -0.216300
     23 C32       -11.2980   -8.2060    4.3190 ca        1 G6G      0.112100
     24 C31       -10.6420   -6.3840    5.0470 cy        1 G6G      0.457600
     25 O33       -10.0350   -7.7990    4.7350 os        1 G6G     -0.372900
     26 C25        -9.3510   -5.3510    6.8490 ca        1 G6G      0.142600
     27 C24        -8.7500   -4.3220    6.1000 ca        1 G6G     -0.146000
     28 C26        -8.8070   -5.6870    8.1080 ca        1 G6G     -0.184000
     29 C27        -7.7030   -5.0000    8.5930 ca        1 G6G     -0.087000
     30 C28        -7.0970   -3.9750    7.8650 ca        1 G6G     -0.135300
     31 C29        -5.9190   -3.2750    8.4290 c3        1 G6G     -0.053800
     32 C23        -7.6260   -3.6340    6.5950 ca        1 G6G      0.163600
     33 C21        -7.6570   -1.5580    5.2590 ca        1 G6G      0.680200
     34 N20        -8.9850   -1.3640    5.5580 nb        1 G6G     -0.713000
     35 C19        -9.6240   -0.3410    4.9820 ca        1 G6G      0.447200
     36 C18        -9.0290    0.5630    4.0840 ca        1 G6G     -0.298300
     37 C17        -7.6850    0.3810    3.7750 ca        1 G6G     -0.025000
     38 C16        -6.9740   -0.6730    4.3610 cp        1 G6G     -0.309800
     39 N11        -5.2380   -0.8890    2.6820 nb        1 G6G     -0.774000
     40 N13        -4.6200   -0.8890    5.0320 nb        1 G6G     -0.779000
     41 N15        -2.8760   -1.0620    3.3470 nb        1 G6G     -0.765000
     42 N9         -3.5390   -0.9710    1.0220 nh        1 G6G     -0.702300
     43 O7          1.3640   -2.6200   -1.1050 os        1 G6G     -0.324900
     44 H1         -3.1030   -2.9690   -0.7200 ha        1 G6G      0.146000
     45 H2         -0.9030   -3.6350   -1.6640 ha        1 G6G      0.147500
     46 H4          1.0500   -0.6010    0.7460 ha        1 G6G      0.147500
     47 H5         -1.1220    0.0860    1.6770 ha        1 G6G      0.146000
     48 H8          3.3580   -2.5230   -1.2790 h1        1 G6G      0.046033
     49 H8A         2.7330   -2.1260    0.4050 h1        1 G6G      0.046033
     50 H8B         2.5540   -0.9010   -0.9520 h1        1 G6G      0.046033
     51 H14        -2.5560   -1.0500    5.4170 h5        1 G6G      0.057100
     52 H41       -18.1050   -7.9380    3.6050 h1        1 G6G      0.038700
     53 H41A      -17.5500   -6.2210    3.3430 h1        1 G6G      0.038700
     54 H42       -18.2250   -5.5120    5.5280 h1        1 G6G      0.036700
     55 H42A      -19.5830   -6.5220    4.8500 h1        1 G6G      0.036700
     56 H46       -20.4010   -6.8290    7.0840 h1        1 G6G      0.031700
     57 H46A      -19.0070   -5.9940    7.9100 h1        1 G6G      0.031700
     58 H46B      -19.3770   -7.7380    8.2890 h1        1 G6G      0.031700
     59 H44       -16.6810   -6.8840    7.3440 h1        1 G6G      0.036700
     60 H44A      -17.2470   -8.5980    7.5990 h1        1 G6G      0.036700
     61 H45       -15.2090   -8.3050    6.0890 h1        1 G6G      0.038700
     62 H45A      -16.5780   -9.3000    5.4080 h1        1 G6G      0.038700
     63 H39       -15.8000   -8.8340    3.0670 h1        1 G6G      0.038200
     64 H39A      -15.5290   -7.0910    2.6130 h1        1 G6G      0.038200
     65 H37       -13.8540   -9.9970    3.1220 ha        1 G6G      0.133000
     66 H38       -11.4050  -10.2500    3.5700 ha        1 G6G      0.152000
     67 H35       -13.8640   -5.8910    4.5480 ha        1 G6G      0.159000
     68 H34       -10.1550   -5.6810    4.3290 h2        1 G6G      0.113700
     69 HN30      -10.8770   -6.6750    7.0440 hn        1 G6G      0.413800
     70 H24        -9.1670   -4.0370    5.1210 ha        1 G6G      0.149000
     71 H26        -9.2540   -6.4890    8.7150 ha        1 G6G      0.134000
     72 H27        -7.2960   -5.2710    9.5800 ha        1 G6G      0.133000
     73 H29        -5.0030   -3.4890    7.8210 hc        1 G6G      0.044700
     74 H29A       -6.0830   -2.1680    8.4460 hc        1 G6G      0.044700
     75 H29B       -5.7200   -3.6090    9.4780 hc        1 G6G      0.044700
     76 HN22       -6.0380   -2.4780    6.0670 hn        1 G6G      0.444800
     77 H19       -10.6890   -0.2380    5.2670 h4        1 G6G      0.026100
     78 H18        -9.6110    1.3820    3.6440 ha        1 G6G      0.149000
     79 H17        -7.1780    1.0620    3.0730 ha        1 G6G      0.150000
     80 HN9        -4.2960   -1.1210    0.3850 hn        1 G6G      0.448800
     81 N22        -6.9770   -2.6720    5.7820 nh        1 G6G     -0.722300
     82 N30       -10.5310   -5.9900    6.4010 nh        1 G6G     -0.712600
     83 C39       -15.4330   -7.8370    3.4560 c3        1 G6G      0.219100
@<TRIPOS>BOND
     1    1    2 ar  
     2    1    6 ar  
     3    1   44 1   
     4    2    3 ar  
     5    2   45 1   
     6    3    4 ar  
     7    3   43 1   
     8    4    5 ar  
     9    4   46 1   
    10    5    6 ar  
    11    5   47 1   
    12    6   42 1   
    13    7   43 1   
    14    7   48 1   
    15    7   49 1   
    16    7   50 1   
    17    8   39 ar  
    18    8   41 ar  
    19    8   42 1   
    20    9   38 1   
    21    9   39 ar  
    22    9   40 ar  
    23   10   40 ar  
    24   10   41 ar  
    25   10   51 1   
    26   11   12 1   
    27   11   17 1   
    28   11   52 1   
    29   11   53 1   
    30   12   13 1   
    31   12   54 1   
    32   12   55 1   
    33   13   14 1   
    34   13   15 1   
    35   14   56 1   
    36   14   57 1   
    37   14   58 1   
    38   15   16 1   
    39   15   59 1   
    40   15   60 1   
    41   16   17 1   
    42   16   61 1   
    43   16   62 1   
    44   17   83 1   
    45   18   19 ar  
    46   18   21 ar  
    47   18   83 1   
    48   19   20 ar  
    49   19   65 1   
    50   20   23 ar  
    51   20   66 1   
    52   21   22 ar  
    53   21   67 1   
    54   22   23 ar  
    55   22   24 1   
    56   23   25 1   
    57   24   25 1   
    58   24   68 1   
    59   24   82 1   
    60   26   27 ar  
    61   26   28 ar  
    62   26   82 1   
    63   27   32 ar  
    64   27   70 1   
    65   28   29 ar  
    66   28   71 1   
    67   29   30 ar  
    68   29   72 1   
    69   30   31 1   
    70   30   32 ar  
    71   31   73 1   
    72   31   74 1   
    73   31   75 1   
    74   32   81 1   
    75   33   34 ar  
    76   33   38 ar  
    77   33   81 1   
    78   34   35 ar  
    79   35   36 ar  
    80   35   77 1   
    81   36   37 ar  
    82   36   78 1   
    83   37   38 ar  
    84   37   79 1   
    85   42   80 1   
    86   63   83 1   
    87   64   83 1   
    88   69   82 1   
    89   76   81 1   
@<TRIPOS>SUBSTRUCTURE
     1 G6G         1 TEMP              0 ****  ****    0 ROOT
