@<TRIPOS>MOLECULE
molecule
   83    88     1     0     0
SMALL
bcc


@<TRIPOS>ATOM
      1 C1           0.0000     0.0000     0.0000 ca         1 G6G      -0.100500
      2 C2           1.3810     0.0000     0.0000 ca         1 G6G      -0.176000
      3 C3           2.0750     0.0000     1.2020 ca         1 G6G       0.131100
      4 C4           1.3820     0.0000     2.4030 ca         1 G6G      -0.176000
      5 C5           0.0020     0.0010     2.4050 ca         1 G6G      -0.100500
      6 C6          -0.6940     0.0010     1.2030 ca         1 G6G       0.103600
      7 C8           4.0840    -0.0010     2.4730 c3         1 G6G       0.128700
      8 C10         -2.7840    -0.6900     2.1800 ca         1 G6G       0.963900
      9 C12         -4.7730    -1.4040     3.0910 cp         1 G6G       0.739500
     10 C14         -2.7790    -1.9870     4.0780 ca         1 G6G       0.763900
     11 C41        -19.0910    -6.8840     5.8860 c3         1 G6G       0.114300
     12 C42        -19.8780    -6.3090     7.0660 c3         1 G6G       0.150300
     13 N43        -19.5880    -7.0940     8.2740 n3         1 G6G      -0.734600
     14 C46        -20.3830    -6.6190     9.4140 c3         1 G6G       0.153100
     15 C44        -18.1520    -7.0630     8.5850 c3         1 G6G       0.150300
     16 C45        -17.3640    -7.6390     7.4050 c3         1 G6G       0.114300
     17 N40        -17.6550    -6.8540     6.1970 n3         1 G6G      -0.689600
     18 C36        -14.6310    -8.8130     4.8440 ca         1 G6G      -0.151300
     19 C37        -13.7680    -9.6920     5.4730 ca         1 G6G      -0.005000
     20 C38        -12.4660    -9.3170     5.7350 ca         1 G6G      -0.437000
     21 C35        -14.1940    -7.5550     4.4670 ca         1 G6G      -0.005000
     22 C34        -12.8950    -7.1680     4.7220 ca         1 G6G      -0.437000
     23 C32        -12.0200    -8.0480     5.3620 ca         1 G6G       0.234400
     24 C31        -12.1040    -6.2650     4.6520 c          1 G6G       0.507700
     25 O33        -11.6000    -7.3440     4.8960 o          1 G6G      -0.115100
     26 C25         -9.9350    -5.2910     4.5780 ca         1 G6G       0.008600
     27 C24         -9.0940    -4.5020     3.8070 ca         1 G6G      -0.110000
     28 C26         -9.4010    -6.1750     5.5070 ca         1 G6G      -0.235000
     29 C27         -8.0300    -6.2750     5.6580 ca         1 G6G      -0.099000
     30 C28         -7.1890    -5.4950     4.8870 ca         1 G6G      -0.067300
     31 C29         -5.6960    -5.6070     5.0560 c3         1 G6G      -0.050800
     32 C23         -7.7180    -4.6040     3.9620 ca         1 G6G       0.080600
     33 C21         -7.4310    -2.1850     3.1070 ca         1 G6G       0.556200
     34 N20         -8.7410    -2.2180     2.9120 nb         1 G6G      -0.688000
     35 C19         -9.2980    -1.6720     1.8490 ca         1 G6G       0.433200
     36 C18         -8.5340    -1.0380     0.8870 ca         1 G6G      -0.265300
     37 C17         -7.1590    -0.9730     1.0420 ca         1 G6G      -0.056000
     38 C16         -6.5910    -1.5540     2.1780 cp         1 G6G      -0.191800
     39 N11         -4.1120    -0.7320     2.1520 nb         1 G6G      -0.848000
     40 N13         -4.0990    -2.0320     4.0550 nb         1 G6G      -0.833000
     41 N15         -2.1210    -1.3200     3.1460 nb         1 G6G      -0.845000
     42 N9          -2.0950     0.0020     1.2040 nu         1 G6G      -0.739300
     43 O7           3.4340    -0.0010     1.2000 os         1 G6G      -0.328900
     44 H1          -0.5420     0.0000    -0.9380 ha         1 G6G       0.149000
     45 H2           1.9220    -0.0010    -0.9380 ha         1 G6G       0.143000
     46 H4           1.9240    -0.0000     3.3410 ha         1 G6G       0.143000
     47 H5          -0.5390     0.0010     3.3430 ha         1 G6G       0.149000
     48 H8           3.7970    -0.8880     3.0240 h1         1 G6G       0.041700
     49 H8A          5.1580     0.0050     2.3300 h1         1 G6G       0.041700
     50 H8B          3.7890     0.8810     3.0290 h1         1 G6G       0.041700
     51 H14         -2.2350    -2.4980     4.8620 h5         1 G6G       0.069100
     52 H41        -19.2810    -6.2880     5.0020 h1         1 G6G       0.051200
     53 H41A       -19.4010    -7.9070     5.7110 h1         1 G6G       0.051200
     54 H42        -19.5860    -5.2790     7.2260 h1         1 G6G       0.036200
     55 H42A       -20.9390    -6.3600     6.8500 h1         1 G6G       0.036200
     56 H46        -20.1740    -7.2330    10.2810 h1         1 G6G       0.029700
     57 H46A       -20.1250    -5.5890     9.6300 h1         1 G6G       0.029700
     58 H46B       -21.4370    -6.6830     9.1710 h1         1 G6G       0.029700
     59 H44        -17.8420    -6.0400     8.7600 h1         1 G6G       0.036200
     60 H44A       -17.9620    -7.6590     9.4700 h1         1 G6G       0.036200
     61 H45        -17.6580    -8.6690     7.2450 h1         1 G6G       0.051200
     62 H45A       -16.3040    -7.5890     7.6210 h1         1 G6G       0.051200
     63 H39        -16.3230   -10.1950     4.9690 h1         1 G6G       0.057700
     64 H39A       -16.3230    -9.1910     3.5130 h1         1 G6G       0.057700
     65 H37        -14.1150   -10.6770     5.7620 ha         1 G6G       0.138500
     66 H38        -11.7920   -10.0060     6.2300 ha         1 G6G       0.097000
     67 H35        -14.8740    -6.8730     3.9700 ha         1 G6G       0.138500
     68 H34        -12.5540    -6.1830     4.4280 ha         1 G6G       0.097000
     69 HN30       -10.3770    -5.1830     4.7540 hn         1 G6G       0.375500
     70 H24         -9.5090    -3.8090     3.0860 ha         1 G6G       0.205000
     71 H26        -10.0580    -6.7870     6.1120 ha         1 G6G       0.152000
     72 H27         -7.6150    -6.9650     6.3830 ha         1 G6G       0.144000
     73 H29         -5.4740    -6.2630     5.8890 hc         1 G6G       0.051367
     74 H29A        -5.2790    -4.6250     5.2480 hc         1 G6G       0.051367
     75 H29B        -5.2590    -6.0130     4.1510 hc         1 G6G       0.051367
     76 HN22        -5.9040    -2.6430     4.1150 hn         1 G6G       0.394800
     77 H19        -10.3730    -1.7210     1.7260 h4         1 G6G       0.038100
     78 H18         -9.0060    -0.5960     0.0180 ha         1 G6G       0.151000
     79 H17         -6.5400    -0.4820     0.3020 ha         1 G6G       0.160000
     80 HN9         -2.5960     0.5230     0.5120 hn         1 G6G       0.468800
     81 N22         -6.8880    -2.7710     4.2400 nu         1 G6G      -0.591300
     82 N30        -11.3230    -5.1910     4.4260 ns         1 G6G      -0.441100
     83 C39        -16.0520    -9.2290     4.5610 c3         1 G6G       0.133100
@<TRIPOS>BOND
     1     1     2 ar
     2     1     6 ar
     3     2     3 ar
     4     3     4 ar
     5     3    43 1
     6     4     5 ar
     7     5     6 ar
     8     6    42 1
     9     7    43 1
    10     8    39 ar
    11     8    41 ar
    12     8    42 1
    13     9    38 1
    14     9    39 ar
    15     9    40 ar
    16    10    40 ar
    17    10    41 ar
    18    11    12 1
    19    11    17 1
    20    12    13 1
    21    13    14 1
    22    13    15 1
    23    15    16 1
    24    16    17 1
    25    17    83 1
    26    83    18 1
    27    18    19 ar
    28    18    21 ar
    29    19    20 ar
    30    20    23 ar
    31    21    22 ar
    32    22    23 ar
    33    23    24 1
    34    24    25 2
    35    24    82 1
    36    82    26 1
    37    26    27 ar
    38    26    28 ar
    39    27    32 ar
    40    28    29 ar
    41    29    30 ar
    42    30    31 1
    43    30    32 ar
    44    32    81 1
    45    81    33 1
    46    33    34 ar
    47    33    38 ar
    48    34    35 ar
    49    35    36 ar
    50    36    37 ar
    51    37    38 ar
    52     1    44 1
    53     2    45 1
    54     4    46 1
    55     5    47 1
    56     7    48 1
    57     7    49 1
    58     7    50 1
    59    10    51 1
    60    11    52 1
    61    11    53 1
    62    12    54 1
    63    12    55 1
    64    14    56 1
    65    14    57 1
    66    14    58 1
    67    15    59 1
    68    15    60 1
    69    16    61 1
    70    16    62 1
    71    83    63 1
    72    83    64 1
    73    19    65 1
    74    20    66 1
    75    21    67 1
    76    22    68 1
    77    82    69 1
    78    27    70 1
    79    28    71 1
    80    29    72 1
    81    31    73 1
    82    31    74 1
    83    31    75 1
    84    81    76 1
    85    35    77 1
    86    36    78 1
    87    37    79 1
    88    42    80 1
@<TRIPOS>SUBSTRUCTURE
     1 G6G         1 TEMP              0 ****  ****    0 ROOT
