@<TRIPOS>MOLECULE
molecule
   74    78     1     0     0
SMALL
bcc


@<TRIPOS>ATOM
      1 CBQ          0.0000     0.0000     0.0000 c3         1 G6H       0.125700
      2 OBP          1.4290     0.0000     0.0000 os         1 G6H      -0.308400
      3 CAB          2.0460     0.0000     1.2120 ca         1 G6H       0.172100
      4 CAC          1.2910     0.0010     2.3750 ca         1 G6H      -0.264000
      5 CAA          3.4340    -0.0060     1.2850 ca         1 G6H       0.036100
      6 OBO          4.1770    -0.0120     0.1440 os         1 G6H      -0.322900
      7 CBR          4.5350     1.2590    -0.4030 c3         1 G6H       0.133700
      8 CAF          4.0640    -0.0060     2.5240 ca         1 G6H       0.172100
      9 OBS          5.4210    -0.0120     2.5970 os         1 G6H      -0.308400
     10 CBT          6.0010    -0.0110     3.9030 c3         1 G6H       0.125700
     11 CAE          3.3070     0.0000     3.6860 ca         1 G6H      -0.264000
     12 CAD          1.9210     0.0010     3.6120 ca         1 G6H       0.216600
     13 NAG          1.1570     0.0020     4.7860 nu         1 G6H      -0.741300
     14 CAH         -0.0260     0.7110     4.8390 ca         1 G6H       0.975900
     15 NAI         -0.7730     0.6760     5.9370 nb         1 G6H      -0.842000
     16 NAM         -0.4170     1.4350     3.7920 nb         1 G6H      -0.842000
     17 CAL         -1.5500     2.1140     3.8410 ca         1 G6H       0.759900
     18 NAK         -2.3000     2.0790     4.9280 nb         1 G6H      -0.863000
     19 CAJ         -1.9130     1.3610     5.9820 cp         1 G6H       0.845500
     20 CAN         -2.7510     1.3250     7.2020 cp         1 G6H      -0.356800
     21 CAO         -2.2950     0.6880     8.3590 ca         1 G6H       0.004000
     22 CAP         -3.1160     0.6820     9.4740 ca         1 G6H      -0.334300
     23 CAQ         -4.3520     1.3000     9.4130 ca         1 G6H       0.492200
     24 NAR         -4.7630     1.8960     8.3110 nb         1 G6H      -0.766000
     25 CAS         -4.0140     1.9350     7.2190 ca         1 G6H       0.740200
     26 NAT         -4.4840     2.5780     6.0850 nu         1 G6H      -0.760300
     27 CAU         -5.7950     3.0620     6.0480 ca         1 G6H       0.164600
     28 CAV         -6.3900     3.5450     7.2050 ca         1 G6H      -0.166000
     29 CAZ         -6.5010     3.0650     4.8510 ca         1 G6H      -0.130300
     30 CBA         -5.8540     2.5480     3.5920 c3         1 G6H      -0.041800
     31 CAY         -7.7970     3.5430     4.8140 ca         1 G6H      -0.097000
     32 CAX         -8.3950     4.0200     5.9650 ca         1 G6H      -0.145000
     33 CAW         -7.6910     4.0240     7.1640 ca         1 G6H       0.060600
     34 NBB         -8.2950     4.5110     8.3270 ns         1 G6H      -0.468100
     35 CBC         -9.6250     4.3830     8.5010 c          1 G6H       0.673700
     36 OBD        -10.2830     3.7410     7.7070 o          1 G6H      -0.585100
     37 CBE        -10.2840     5.0240     9.6590 ca         1 G6H      -0.151600
     38 CBJ        -11.6610     4.8920     9.8430 ca         1 G6H      -0.021000
     39 CBF         -9.5300     5.7570    10.5770 ca         1 G6H      -0.080000
     40 CBG        -10.1520     6.3530    11.6560 ca         1 G6H      -0.141000
     41 CBH        -11.5190     6.2230    11.8280 ca         1 G6H      -0.060000
     42 CBI        -12.2710     5.4930    10.9250 ca         1 G6H      -0.191300
     43 CBK        -13.7580     5.3520    11.1250 c3         1 G6H       0.676200
     44 FBL        -14.0190     4.2190    11.9030 f          1 G6H      -0.220967
     45 FBM        -14.2500     6.4880    11.7760 f          1 G6H      -0.220967
     46 FBN        -14.3840     5.2200     9.8810 f          1 G6H      -0.220967
     47 HBQ         -0.3610     0.9100     0.4630 h1         1 G6H       0.043200
     48 HBQA        -0.3610    -0.8560     0.5570 h1         1 G6H       0.043200
     49 HBQB        -0.3610    -0.0540    -1.0200 h1         1 G6H       0.043200
     50 HAC          0.2100     0.0010     2.3180 ha         1 G6H       0.152500
     51 HBR          5.5880     1.4450    -0.2240 h1         1 G6H       0.034033
     52 HBRA         4.3450     1.2610    -1.4690 h1         1 G6H       0.034033
     53 HBRB         3.9460     2.0350     0.0710 h1         1 G6H       0.034033
     54 HBT          5.6780     0.8720     4.4420 h1         1 G6H       0.043200
     55 HBTA         5.6840    -0.8970     4.4400 h1         1 G6H       0.043200
     56 HBTB         7.0810    -0.0070     3.8190 h1         1 G6H       0.043200
     57 HAE          3.7980     0.0000     4.6520 ha         1 G6H       0.152500
     58 HNAG         1.4590    -0.5270     5.5800 hn         1 G6H       0.472800
     59 HAL         -1.8660     2.7000     2.9860 h5         1 G6H       0.065100
     60 HAO         -1.3230     0.2110     8.3840 ha         1 G6H       0.158000
     61 HAP         -2.7930     0.1970    10.3870 ha         1 G6H       0.142000
     62 HAQ         -4.9940     1.2930    10.2860 h4         1 G6H       0.024100
     63 HNAT        -3.8690     2.7420     5.3130 hn         1 G6H       0.504800
     64 HAV         -5.8390     3.5470     8.1380 ha         1 G6H       0.168000
     65 HBA         -5.0320     3.1970     3.3160 hc         1 G6H       0.040367
     66 HBAA        -6.5850     2.5290     2.7920 hc         1 G6H       0.040367
     67 HBAB        -5.4810     1.5450     3.7640 hc         1 G6H       0.040367
     68 HAY         -8.3460     3.5430     3.8800 ha         1 G6H       0.135000
     69 HAX         -9.4110     4.3940     5.9330 ha         1 G6H       0.159000
     70 HNBB        -7.7400     4.9640     9.0260 hn         1 G6H       0.323500
     71 HBJ        -12.2510     4.3210     9.1360 ha         1 G6H       0.175000
     72 HBF         -8.4600     5.8590    10.4440 ha         1 G6H       0.132000
     73 HBG         -9.5690     6.9240    12.3690 ha         1 G6H       0.143000
     74 HBH        -12.0020     6.6920    12.6760 ha         1 G6H       0.150000
@<TRIPOS>BOND
     1     1     2 1
     2     2     3 1
     3     3     4 ar
     4     3     5 ar
     5     4    12 ar
     6     5     6 1
     7     5     8 ar
     8     6     7 1
     9     8     9 1
    10     8    11 ar
    11     9    10 1
    12    11    12 ar
    13    12    13 1
    14    13    14 1
    15    14    15 ar
    16    14    16 ar
    17    15    19 ar
    18    16    17 ar
    19    17    18 ar
    20    18    19 ar
    21    19    20 1
    22    20    21 ar
    23    20    25 ar
    24    21    22 ar
    25    22    23 ar
    26    23    24 ar
    27    24    25 ar
    28    25    26 1
    29    26    27 1
    30    27    28 ar
    31    27    29 ar
    32    28    33 ar
    33    29    30 1
    34    29    31 ar
    35    31    32 ar
    36    32    33 ar
    37    33    34 1
    38    34    35 1
    39    35    36 2
    40    35    37 1
    41    37    38 ar
    42    37    39 ar
    43    38    42 ar
    44    39    40 ar
    45    40    41 ar
    46    41    42 ar
    47    42    43 1
    48    43    44 1
    49    43    45 1
    50    43    46 1
    51     1    47 1
    52     1    48 1
    53     1    49 1
    54     4    50 1
    55     7    51 1
    56     7    52 1
    57     7    53 1
    58    10    54 1
    59    10    55 1
    60    10    56 1
    61    11    57 1
    62    13    58 1
    63    17    59 1
    64    21    60 1
    65    22    61 1
    66    23    62 1
    67    26    63 1
    68    28    64 1
    69    30    65 1
    70    30    66 1
    71    30    67 1
    72    31    68 1
    73    32    69 1
    74    34    70 1
    75    38    71 1
    76    39    72 1
    77    40    73 1
    78    41    74 1
@<TRIPOS>SUBSTRUCTURE
     1 G6H         1 TEMP              0 ****  ****    0 ROOT
