@<TRIPOS>MOLECULE
G6H
   74    78     1     0     0
SMALL
bcc


@<TRIPOS>ATOM
      1 CBQ          0.0000     0.0000     0.0000 c3         1 G6H       0.239700
      2 OBP          1.4290     0.0000     0.0000 os         1 G6H      -0.289400
      3 CAB          2.0460     0.0000     1.2120 ca         1 G6H       0.181100
      4 CAC          1.2910     0.0010     2.3750 ca         1 G6H      -0.254500
      5 CAA          3.4340    -0.0060     1.2850 ca         1 G6H       0.036100
      6 OBO          4.1770    -0.0120     0.1440 os         1 G6H      -0.308900
      7 CBR          4.5350     1.2590    -0.4030 c3         1 G6H       0.250700
      8 CAF          4.0640    -0.0060     2.5240 ca         1 G6H       0.181100
      9 OBS          5.4210    -0.0120     2.5970 os         1 G6H      -0.289400
     10 CBT          6.0010    -0.0110     3.9030 c3         1 G6H       0.239700
     11 CAE          3.3070     0.0000     3.6860 ca         1 G6H      -0.254500
     12 CAD          1.9210     0.0010     3.6120 ca         1 G6H       0.056600
     13 NAG          1.1570     0.0020     4.7860 nu         1 G6H      -0.258300
     14 CAH         -0.0260     0.7110     4.8390 ca         1 G6H       0.742900
     15 NAI         -0.7730     0.6760     5.9370 nb         1 G6H      -0.743000
     16 NAM         -0.4170     1.4350     3.7920 nb         1 G6H      -0.752000
     17 CAL         -1.5500     2.1140     3.8410 ca         1 G6H       0.720900
     18 NAK         -2.3000     2.0790     4.9280 nb         1 G6H      -0.756000
     19 CAJ         -1.9130     1.3610     5.9820 cp         1 G6H       0.780500
     20 CAN         -2.7510     1.3250     7.2020 cp         1 G6H      -0.385800
     21 CAO         -2.2950     0.6880     8.3590 ca         1 G6H       0.039000
     22 CAP         -3.1160     0.6820     9.4740 ca         1 G6H      -0.315300
     23 CAQ         -4.3520     1.3000     9.4130 ca         1 G6H       0.482200
     24 NAR         -4.7630     1.8960     8.3110 nb         1 G6H      -0.666000
     25 CAS         -4.0140     1.9350     7.2190 ca         1 G6H       0.558200
     26 NAT         -4.4840     2.5780     6.0850 nu         1 G6H      -0.349300
     27 CAU         -5.7950     3.0620     6.0480 ca         1 G6H       0.022600
     28 CAV         -6.3900     3.5450     7.2050 ca         1 G6H      -0.153000
     29 CAZ         -6.5010     3.0650     4.8510 ca         1 G6H      -0.131300
     30 CBA         -5.8540     2.5480     3.5920 c3         1 G6H       0.065200
     31 CAY         -7.7970     3.5430     4.8140 ca         1 G6H      -0.067000
     32 CAX         -8.3950     4.0200     5.9650 ca         1 G6H      -0.119000
     33 CAW         -7.6910     4.0240     7.1640 ca         1 G6H      -0.084400
     34 NBB         -8.2950     4.5110     8.3270 ns         1 G6H      -0.024100
     35 CBC         -9.6250     4.3830     8.5010 c          1 G6H       0.580700
     36 OBD        -10.2830     3.7410     7.7070 o          1 G6H      -0.628100
     37 CBE        -10.2840     5.0240     9.6590 ca         1 G6H      -0.164600
     38 CBJ        -11.6610     4.8920     9.8430 ca         1 G6H       0.023000
     39 CBF         -9.5300     5.7570    10.5770 ca         1 G6H      -0.053000
     40 CBG        -10.1520     6.3530    11.6560 ca         1 G6H      -0.115000
     41 CBH        -11.5190     6.2230    11.8280 ca         1 G6H      -0.022000
     42 CBI        -12.2710     5.4930    10.9250 ca         1 G6H      -0.222300
     43 CBK        -13.7580     5.3520    11.1250 c3         1 G6H       0.642200
     44 FBL        -14.0190     4.2190    11.9030 f          1 G6H      -0.206300
     45 FBM        -14.2500     6.4880    11.7760 f          1 G6H      -0.206300
     46 FBN        -14.3840     5.2200     9.8810 f          1 G6H      -0.206300
     47 HBQ         -0.3610     0.9100     0.4630 h1         1 G6H      -0.001300
     48 HBQA        -0.3610    -0.8560     0.5570 h1         1 G6H      -0.001300
     49 HBQB        -0.3610    -0.0540    -1.0200 h1         1 G6H      -0.001300
     50 HAC          0.2100     0.0010     2.3180 ha         1 G6H       0.141000
     51 HBR          5.5880     1.4450    -0.2240 h1         1 G6H      -0.008967
     52 HBRA         4.3450     1.2610    -1.4690 h1         1 G6H      -0.008967
     53 HBRB         3.9460     2.0350     0.0710 h1         1 G6H      -0.008967
     54 HBT          5.6780     0.8720     4.4420 h1         1 G6H      -0.001300
     55 HBTA         5.6840    -0.8970     4.4400 h1         1 G6H      -0.001300
     56 HBTB         7.0810    -0.0070     3.8190 h1         1 G6H      -0.001300
     57 HAE          3.7980     0.0000     4.6520 ha         1 G6H       0.141000
     58 HNAG         1.4590    -0.5270     5.5800 hn         1 G6H       0.296800
     59 HAL         -1.8660     2.7000     2.9860 h5         1 G6H       0.002100
     60 HAO         -1.3230     0.2110     8.3840 ha         1 G6H       0.121000
     61 HAP         -2.7930     0.1970    10.3870 ha         1 G6H       0.119000
     62 HAQ         -4.9940     1.2930    10.2860 h4         1 G6H      -0.025900
     63 HNAT        -3.8690     2.7420     5.3130 hn         1 G6H       0.359800
     64 HAV         -5.8390     3.5470     8.1380 ha         1 G6H       0.151000
     65 HBA         -5.0320     3.1970     3.3160 hc         1 G6H       0.006700
     66 HBAA        -6.5850     2.5290     2.7920 hc         1 G6H       0.006700
     67 HBAB        -5.4810     1.5450     3.7640 hc         1 G6H       0.006700
     68 HAY         -8.3460     3.5430     3.8800 ha         1 G6H       0.107000
     69 HAX         -9.4110     4.3940     5.9330 ha         1 G6H       0.139000
     70 HNBB        -7.7400     4.9640     9.0260 hn         1 G6H       0.169500
     71 HBJ        -12.2510     4.3210     9.1360 ha         1 G6H       0.142000
     72 HBF         -8.4600     5.8590    10.4440 ha         1 G6H       0.105000
     73 HBG         -9.5690     6.9240    12.3690 ha         1 G6H       0.113000
     74 HBH        -12.0020     6.6920    12.6760 ha         1 G6H       0.118000
@<TRIPOS>BOND
     1     1     2 1   
     2     1    47 1   
     3     1    48 1   
     4     1    49 1   
     5     2     3 1   
     6     3     4 ar  
     7     3     5 ar  
     8     4    12 ar  
     9     4    50 1   
    10     5     6 1   
    11     5     8 ar  
    12     6     7 1   
    13     7    51 1   
    14     7    52 1   
    15     7    53 1   
    16     8     9 1   
    17     8    11 ar  
    18     9    10 1   
    19    10    54 1   
    20    10    55 1   
    21    10    56 1   
    22    11    12 ar  
    23    11    57 1   
    24    12    13 1   
    25    13    14 1   
    26    13    58 1   
    27    14    15 ar  
    28    14    16 ar  
    29    15    19 ar  
    30    16    17 ar  
    31    17    18 ar  
    32    17    59 1   
    33    18    19 ar  
    34    19    20 1   
    35    20    21 ar  
    36    20    25 ar  
    37    21    22 ar  
    38    21    60 1   
    39    22    23 ar  
    40    22    61 1   
    41    23    24 ar  
    42    23    62 1   
    43    24    25 ar  
    44    25    26 1   
    45    26    27 1   
    46    26    63 1   
    47    27    28 ar  
    48    27    29 ar  
    49    28    33 ar  
    50    28    64 1   
    51    29    30 1   
    52    29    31 ar  
    53    30    65 1   
    54    30    66 1   
    55    30    67 1   
    56    31    32 ar  
    57    31    68 1   
    58    32    33 ar  
    59    32    69 1   
    60    33    34 1   
    61    34    35 1   
    62    34    70 1   
    63    35    36 2   
    64    35    37 1   
    65    37    38 ar  
    66    37    39 ar  
    67    38    42 ar  
    68    38    71 1   
    69    39    40 ar  
    70    39    72 1   
    71    40    41 ar  
    72    40    73 1   
    73    41    42 ar  
    74    41    74 1   
    75    42    43 1   
    76    43    44 1   
    77    43    45 1   
    78    43    46 1   
@<TRIPOS>SUBSTRUCTURE
     1 G6H         1 TEMP              0 ****  ****    0 ROOT
