@<TRIPOS>MOLECULE
G6I
   66    70     1     0     0
SMALL
bcc


@<TRIPOS>ATOM
      1 CAA          0.0000     0.0000     0.0000 c3         1 G6I       0.243700
      2 OBC          1.4290     0.0000     0.0000 os         1 G6I      -0.305900
      3 CBH          2.0460     0.0000     1.2120 ca         1 G6I       0.146100
      4 CAR          3.4320     0.0010     1.2840 ca         1 G6I      -0.159000
      5 CAP          4.0590     0.0020     2.5130 ca         1 G6I      -0.067000
      6 CAS          1.2900     0.0070     2.3740 ca         1 G6I      -0.159000
      7 CAQ          1.9170     0.0080     3.6050 ca         1 G6I      -0.067000
      8 CBF          3.3030     0.0030     3.6790 ca         1 G6I      -0.064400
      9 NBA          3.9400     0.0040     4.9260 nu         1 G6I      -0.249300
     10 CBK          5.1360    -0.6650     5.0920 ca         1 G6I       0.739900
     11 NAY          5.7950    -0.5730     6.2420 nb         1 G6I      -0.746000
     12 NAW          5.6280    -1.4080     4.1020 nb         1 G6I      -0.752000
     13 CAJ          6.7720    -2.0490     4.2600 ca         1 G6I       0.722900
     14 NAX          7.4340    -1.9570     5.3990 nb         1 G6I      -0.759000
     15 CBM          6.9480    -1.2200     6.3970 cp         1 G6I       0.779500
     16 CBO          7.6880    -1.1210     7.6750 cp         1 G6I      -0.382800
     17 CAN          7.1290    -0.4600     8.7700 ca         1 G6I       0.038000
     18 CAG          7.8610    -0.3940     9.9440 ca         1 G6I      -0.315300
     19 CAI          9.1120    -0.9800     9.9990 ca         1 G6I       0.481200
     20 NAV          9.6220    -1.6000     8.9520 nb         1 G6I      -0.667000
     21 CBN          8.9610    -1.6950     7.8090 ca         1 G6I       0.558200
     22 NBB          9.5330    -2.3620     6.7360 nu         1 G6I      -0.353300
     23 CBL         10.8500    -2.8220     6.8210 ca         1 G6I       0.022600
     24 CAT         11.3410    -3.3050     8.0260 ca         1 G6I      -0.144000
     25 CBE         11.6680    -2.7990     5.6970 ca         1 G6I      -0.128300
     26 CAB         11.1330    -2.2800     4.3880 c3         1 G6I       0.065200
     27 CAM         12.9700    -3.2530     5.7800 ca         1 G6I      -0.068000
     28 CAO         13.4630    -3.7310     6.9790 ca         1 G6I      -0.116000
     29 CBG         12.6500    -3.7600     8.1050 ca         1 G6I      -0.086400
     30 NAZ         13.1490    -4.2480     9.3160 ns         1 G6I      -0.024100
     31 CBD         14.4470    -4.0710     9.6310 c          1 G6I       0.579700
     32 OAC         15.1590    -3.3940     8.9150 o          1 G6I      -0.629100
     33 CBI         15.0060    -4.7000    10.8460 ca         1 G6I      -0.163600
     34 CAU         16.3480    -4.5130    11.1780 ca         1 G6I       0.024000
     35 CAK         14.1910    -5.4770    11.6710 ca         1 G6I      -0.053000
     36 CAH         14.7190    -6.0620    12.8050 ca         1 G6I      -0.115000
     37 CAL         16.0510    -5.8770    13.1240 ca         1 G6I      -0.022000
     38 CBJ         16.8640    -5.1020    12.3140 ca         1 G6I      -0.223300
     39 CBP         18.3130    -4.9030    12.6740 c3         1 G6I       0.642200
     40 FAF         18.7830    -6.0260    13.3630 f          1 G6I      -0.206300
     41 FAD         19.0640    -4.7250    11.5060 f          1 G6I      -0.206300
     42 FAE         18.4410    -3.7710    13.4870 f          1 G6I      -0.206300
     43 H1          -0.3610     0.8860     0.5070 h1         1 G6I      -0.001967
     44 H2          -0.3610    -0.0040    -1.0210 h1         1 G6I      -0.001967
     45 H3          -0.3610    -0.8830     0.5140 h1         1 G6I      -0.001967
     46 H4           4.0210    -0.0000     0.3750 ha         1 G6I       0.120500
     47 H5           5.1410     0.0000     2.5700 ha         1 G6I       0.118500
     48 H6           0.2090     0.0110     2.3170 ha         1 G6I       0.120500
     49 H7           1.3260     0.0110     4.5140 ha         1 G6I       0.118500
     50 H8           3.5400     0.5110     5.6910 hn         1 G6I       0.292800
     51 H9           7.1690    -2.6500     3.4510 h5         1 G6I       0.002100
     52 H10          6.1460    -0.0080     8.7030 ha         1 G6I       0.121000
     53 H11          7.4570     0.1120    10.8120 ha         1 G6I       0.118000
     54 H12          9.6850    -0.9260    10.9170 h4         1 G6I      -0.025900
     55 H13          8.9860    -2.5600     5.9220 hn         1 G6I       0.360800
     56 H14         10.7050    -3.3270     8.9020 ha         1 G6I       0.145000
     57 H15         11.9420    -2.2070     3.6710 hc         1 G6I       0.007367
     58 H16         10.3770    -2.9580     4.0120 hc         1 G6I       0.007367
     59 H17         10.6960    -1.3000     4.5400 hc         1 G6I       0.007367
     60 H18         13.6060    -3.2330     4.9030 ha         1 G6I       0.107000
     61 H19         14.4850    -4.0860     7.0400 ha         1 G6I       0.137000
     62 H20         12.5450    -4.7410     9.9440 hn         1 G6I       0.168500
     63 H21         16.9850    -3.9070    10.5450 ha         1 G6I       0.142000
     64 H22         13.1470    -5.6220    11.4210 ha         1 G6I       0.105000
     65 H23         14.0880    -6.6670    13.4440 ha         1 G6I       0.113000
     66 H24         16.4610    -6.3380    14.0150 ha         1 G6I       0.117000
@<TRIPOS>BOND
     1     1     2 1   
     2     1    43 1   
     3     1    44 1   
     4     1    45 1   
     5     2     3 1   
     6     3     4 ar  
     7     3     6 ar  
     8     4     5 ar  
     9     4    46 1   
    10     5     8 ar  
    11     5    47 1   
    12     6     7 ar  
    13     6    48 1   
    14     7     8 ar  
    15     7    49 1   
    16     8     9 1   
    17     9    10 1   
    18     9    50 1   
    19    10    11 ar  
    20    10    12 ar  
    21    11    15 ar  
    22    12    13 ar  
    23    13    14 ar  
    24    13    51 1   
    25    14    15 ar  
    26    15    16 1   
    27    16    17 ar  
    28    16    21 ar  
    29    17    18 ar  
    30    17    52 1   
    31    18    19 ar  
    32    18    53 1   
    33    19    20 ar  
    34    19    54 1   
    35    20    21 ar  
    36    21    22 1   
    37    22    23 1   
    38    22    55 1   
    39    23    24 ar  
    40    23    25 ar  
    41    24    29 ar  
    42    24    56 1   
    43    25    26 1   
    44    25    27 ar  
    45    26    57 1   
    46    26    58 1   
    47    26    59 1   
    48    27    28 ar  
    49    27    60 1   
    50    28    29 ar  
    51    28    61 1   
    52    29    30 1   
    53    30    31 1   
    54    30    62 1   
    55    31    32 2   
    56    31    33 1   
    57    33    34 ar  
    58    33    35 ar  
    59    34    38 ar  
    60    34    63 1   
    61    35    36 ar  
    62    35    64 1   
    63    36    37 ar  
    64    36    65 1   
    65    37    38 ar  
    66    37    66 1   
    67    38    39 1   
    68    39    40 1   
    69    39    41 1   
    70    39    42 1   
@<TRIPOS>SUBSTRUCTURE
     1 G6I         1 TEMP              0 ****  ****    0 ROOT
