@<TRIPOS>MOLECULE
molecule
   66    70     1     0     0
SMALL
bcc


@<TRIPOS>ATOM
      1 CAA          0.0000     0.0000     0.0000 c3         1 G6I       0.128700
      2 OBC          1.4290     0.0000     0.0000 os         1 G6I      -0.327900
      3 CBH          2.0460     0.0000     1.2120 ca         1 G6I       0.130100
      4 CAR          3.4320     0.0010     1.2840 ca         1 G6I      -0.174000
      5 CAP          4.0590     0.0020     2.5130 ca         1 G6I      -0.101500
      6 CAS          1.2900     0.0070     2.3740 ca         1 G6I      -0.174000
      7 CAQ          1.9170     0.0080     3.6050 ca         1 G6I      -0.101500
      8 CBF          3.3030     0.0030     3.6790 ca         1 G6I       0.108600
      9 NBA          3.9400     0.0040     4.9260 nu         1 G6I      -0.738300
     10 CBK          5.1360    -0.6650     5.0920 ca         1 G6I       0.973900
     11 NAY          5.7950    -0.5730     6.2420 nb         1 G6I      -0.845000
     12 NAW          5.6280    -1.4080     4.1020 nb         1 G6I      -0.843000
     13 CAJ          6.7720    -2.0490     4.2600 ca         1 G6I       0.761900
     14 NAX          7.4340    -1.9570     5.3990 nb         1 G6I      -0.867000
     15 CBM          6.9480    -1.2200     6.3970 cp         1 G6I       0.844500
     16 CBO          7.6880    -1.1210     7.6750 cp         1 G6I      -0.354800
     17 CAN          7.1290    -0.4600     8.7700 ca         1 G6I       0.003000
     18 CAG          7.8610    -0.3940     9.9440 ca         1 G6I      -0.334300
     19 CAI          9.1120    -0.9800     9.9990 ca         1 G6I       0.491200
     20 NAV          9.6220    -1.6000     8.9520 nb         1 G6I      -0.766000
     21 CBN          8.9610    -1.6950     7.8090 ca         1 G6I       0.740200
     22 NBB          9.5330    -2.3620     6.7360 nu         1 G6I      -0.762300
     23 CBL         10.8500    -2.8220     6.8210 ca         1 G6I       0.164600
     24 CAT         11.3410    -3.3050     8.0260 ca         1 G6I      -0.161000
     25 CBE         11.6680    -2.7990     5.6970 ca         1 G6I      -0.127300
     26 CAB         11.1330    -2.2800     4.3880 c3         1 G6I      -0.041800
     27 CAM         12.9700    -3.2530     5.7800 ca         1 G6I      -0.098000
     28 CAO         13.4630    -3.7310     6.9790 ca         1 G6I      -0.143000
     29 CBG         12.6500    -3.7600     8.1050 ca         1 G6I       0.058600
     30 NAZ         13.1490    -4.2480     9.3160 ns         1 G6I      -0.469100
     31 CBD         14.4470    -4.0710     9.6310 c          1 G6I       0.673700
     32 OAC         15.1590    -3.3940     8.9150 o          1 G6I      -0.585100
     33 CBI         15.0060    -4.7000    10.8460 ca         1 G6I      -0.151600
     34 CAU         16.3480    -4.5130    11.1780 ca         1 G6I      -0.021000
     35 CAK         14.1910    -5.4770    11.6710 ca         1 G6I      -0.080000
     36 CAH         14.7190    -6.0620    12.8050 ca         1 G6I      -0.141000
     37 CAL         16.0510    -5.8770    13.1240 ca         1 G6I      -0.060000
     38 CBJ         16.8640    -5.1020    12.3140 ca         1 G6I      -0.191300
     39 CBP         18.3130    -4.9030    12.6740 c3         1 G6I       0.676200
     40 FAF         18.7830    -6.0260    13.3630 f          1 G6I      -0.220967
     41 FAD         19.0640    -4.7250    11.5060 f          1 G6I      -0.220967
     42 FAE         18.4410    -3.7710    13.4870 f          1 G6I      -0.220967
     43 H1          -0.3610     0.8860     0.5070 h1         1 G6I       0.041700
     44 H2          -0.3610    -0.0040    -1.0210 h1         1 G6I       0.041700
     45 H3          -0.3610    -0.8830     0.5140 h1         1 G6I       0.041700
     46 H4           4.0210    -0.0000     0.3750 ha         1 G6I       0.143500
     47 H5           5.1410     0.0000     2.5700 ha         1 G6I       0.146500
     48 H6           0.2090     0.0110     2.3170 ha         1 G6I       0.143500
     49 H7           1.3260     0.0110     4.5140 ha         1 G6I       0.146500
     50 H8           3.5400     0.5110     5.6910 hn         1 G6I       0.469800
     51 H9           7.1690    -2.6500     3.4510 h5         1 G6I       0.065100
     52 H10          6.1460    -0.0080     8.7030 ha         1 G6I       0.158000
     53 H11          7.4570     0.1120    10.8120 ha         1 G6I       0.142000
     54 H12          9.6850    -0.9260    10.9170 h4         1 G6I       0.023100
     55 H13          8.9860    -2.5600     5.9220 hn         1 G6I       0.505800
     56 H14         10.7050    -3.3270     8.9020 ha         1 G6I       0.163000
     57 H15         11.9420    -2.2070     3.6710 hc         1 G6I       0.041033
     58 H16         10.3770    -2.9580     4.0120 hc         1 G6I       0.041033
     59 H17         10.6960    -1.3000     4.5400 hc         1 G6I       0.041033
     60 H18         13.6060    -3.2330     4.9030 ha         1 G6I       0.135000
     61 H19         14.4850    -4.0860     7.0400 ha         1 G6I       0.157000
     62 H20         12.5450    -4.7410     9.9440 hn         1 G6I       0.322500
     63 H21         16.9850    -3.9070    10.5450 ha         1 G6I       0.175000
     64 H22         13.1470    -5.6220    11.4210 ha         1 G6I       0.132000
     65 H23         14.0880    -6.6670    13.4440 ha         1 G6I       0.143000
     66 H24         16.4610    -6.3380    14.0150 ha         1 G6I       0.150000
@<TRIPOS>BOND
     1     7     6 ar
     2     7     8 ar
     3    12    13 ar
     4    12    10 ar
     5     9     8 1
     6     9    10 1
     7     6     3 ar
     8    13    14 ar
     9     8     5 ar
    10    10    11 ar
    11     3     2 1
    12     3     4 ar
    13     2     1 1
    14    14    15 ar
    15     5     4 ar
    16    11    15 ar
    17    15    16 1
    18    41    39 1
    19    40    39 1
    20    16    17 ar
    21    16    21 ar
    22    39    42 1
    23    39    38 1
    24    22    21 1
    25    22    23 1
    26    32    31 2
    27    34    38 ar
    28    34    33 ar
    29    17    18 ar
    30    21    20 ar
    31    23    24 ar
    32    23    25 ar
    33    24    29 ar
    34    38    37 ar
    35    31    33 1
    36    31    30 1
    37    26    25 1
    38    25    27 ar
    39    33    35 ar
    40    29    30 1
    41    29    28 ar
    42    20    19 ar
    43    27    28 ar
    44    18    19 ar
    45    37    36 ar
    46    35    36 ar
    47     1    43 1
    48     1    44 1
    49     1    45 1
    50     4    46 1
    51     5    47 1
    52     6    48 1
    53     7    49 1
    54     9    50 1
    55    13    51 1
    56    17    52 1
    57    18    53 1
    58    19    54 1
    59    22    55 1
    60    24    56 1
    61    26    57 1
    62    26    58 1
    63    26    59 1
    64    27    60 1
    65    28    61 1
    66    30    62 1
    67    34    63 1
    68    35    64 1
    69    36    65 1
    70    37    66 1
@<TRIPOS>SUBSTRUCTURE
     1 G6I         1 TEMP              0 ****  ****    0 ROOT
