@<TRIPOS>MOLECULE
molecule
   51    53     1     0     0
SMALL
bcc


@<TRIPOS>ATOM
      1 C4           0.0000     0.0000     0.0000 ca         1 G6J       0.155900
      2 C14          5.8670     4.9980    -2.8460 c3         1 G6J      -0.105400
      3 C5           1.3830     0.0000     0.0000 ca         1 G6J      -0.197500
      4 C6           2.0780     0.0000     1.2020 ca         1 G6J       0.210600
      5 C11          7.4760     2.1830    -3.0180 c          1 G6J       0.664500
      6 C7           4.1700     0.6550     0.1940 ca         1 G6J       0.918900
      7 C8           4.1170     2.0040    -1.6740 ca         1 G6J       0.466200
      8 C9           5.4950     1.9240    -1.7530 ca         1 G6J      -0.259000
      9 C10          6.1840     1.1690    -0.7980 ca         1 G6J       0.661200
     10 C12          8.0670     1.0480    -2.2220 c3         1 G6J       0.112500
     11 N1           3.4780     0.0000     1.2010 nu         1 G6J      -0.753300
     12 N2           3.4930     1.3640    -0.6950 nb         1 G6J      -0.768000
     13 C3          -0.6940     0.0070     1.2020 ca         1 G6J       0.004100
     14 N3           5.4920     0.5530     0.1520 nb         1 G6J      -0.752000
     15 C1           1.3840     0.0010     2.4040 ca         1 G6J      -0.197500
     16 C2           0.0010     0.0080     2.4050 ca         1 G6J       0.155900
     17 F1          -0.6760     0.0010    -1.1690 f          1 G6J      -0.123400
     18 O1          -2.0550     0.0120     1.2030 oh         1 G6J      -0.494100
     19 F2          -0.6750     0.0090     3.5750 f          1 G6J      -0.123400
     20 N4           6.2070     2.5780    -2.7690 n          1 G6J      -0.369000
     21 N5           7.5640     1.0780    -0.8460 nh         1 G6J      -0.708300
     22 C15          5.2240     6.1320    -3.6500 c3         1 G6J      -0.091100
     23 C16          8.1890     2.1610    -0.0750 c3         1 G6J       0.165800
     24 C17          7.8450     1.9970     1.4060 c3         1 G6J      -0.084400
     25 C18          8.4970     3.1260     2.2080 c3         1 G6J      -0.094100
     26 O2           8.1340     2.7400    -3.8720 o          1 G6J      -0.615500
     27 C19          9.5910     1.1790    -2.2080 c3         1 G6J      -0.080100
     28 H1           6.9360     5.1600    -2.7840 hc         1 G6J       0.052200
     29 H2           5.4460     4.9810    -1.8480 hc         1 G6J       0.052200
     30 H3           1.9240    -0.0060    -0.9380 ha         1 G6J       0.166000
     31 H4           3.5560     2.5820    -2.3980 h4         1 G6J       0.041100
     32 H5           7.7890     0.1080    -2.6830 h1         1 G6J       0.095700
     33 H6           6.0120     3.6810    -4.5370 h1         1 G6J       0.064700
     34 H7           4.5230     3.5010    -3.6000 h1         1 G6J       0.064700
     35 H8           3.9780    -0.5020     1.9070 hn         1 G6J       0.473800
     36 H9           1.9260     0.0020     3.3430 ha         1 G6J       0.166000
     37 H10         -2.3730    -0.8750     1.2370 ho         1 G6J       0.420000
     38 H11          5.6370     6.1430    -4.6510 hc         1 G6J       0.038033
     39 H12          4.1540     5.9750    -3.7020 hc         1 G6J       0.038033
     40 H13          5.4280     7.0790    -3.1650 hc         1 G6J       0.038033
     41 H14          9.2640     2.1200    -0.2030 h1         1 G6J       0.049700
     42 H15          7.8190     3.1160    -0.4290 h1         1 G6J       0.049700
     43 H16          8.2150     1.0420     1.7600 hc         1 G6J       0.057700
     44 H17          6.7700     2.0380     1.5340 hc         1 G6J       0.057700
     45 H18          9.5730     3.0820     2.0850 hc         1 G6J       0.035033
     46 H19          8.1320     4.0810     1.8510 hc         1 G6J       0.035033
     47 H20          8.2490     3.0140     3.2570 hc         1 G6J       0.035033
     48 H21          9.8620     2.2160    -2.0510 hc         1 G6J       0.055367
     49 H22          9.9920     0.8400    -3.1550 hc         1 G6J       0.055367
     50 H23          9.9980     0.5740    -1.4060 hc         1 G6J       0.055367
     51 C13          5.5920     3.6630    -3.5390 c3         1 G6J       0.105000
@<TRIPOS>BOND
     1    19    16 1
     2    12     7 ar
     3    12     6 ar
     4    15    16 ar
     5    15     4 ar
     6    11     6 1
     7    11     4 1
     8     7     8 ar
     9    16    13 ar
    10     6    14 ar
    11    22     2 1
    12     4     3 ar
    13     2    51 1
    14    51    20 1
    15     8    20 1
    16     8     9 ar
    17    13    18 1
    18    13     1 ar
    19    14     9 ar
    20    20     5 1
    21     3     1 ar
    22     9    21 1
    23     1    17 1
    24     5    26 2
    25     5    10 1
    26    21    10 1
    27    21    23 1
    28    10    27 1
    29    23    24 1
    30    24    25 1
    31     2    28 1
    32     2    29 1
    33     3    30 1
    34     7    31 1
    35    10    32 1
    36    51    33 1
    37    51    34 1
    38    11    35 1
    39    15    36 1
    40    18    37 1
    41    22    38 1
    42    22    39 1
    43    22    40 1
    44    23    41 1
    45    23    42 1
    46    24    43 1
    47    24    44 1
    48    25    45 1
    49    25    46 1
    50    25    47 1
    51    27    48 1
    52    27    49 1
    53    27    50 1
@<TRIPOS>SUBSTRUCTURE
     1 G6J         1 TEMP              0 ****  ****    0 ROOT
