@<TRIPOS>MOLECULE
molecule
   61    65     1     0     0
SMALL
bcc


@<TRIPOS>ATOM
      1 C1           0.0000     0.0000     0.0000 c3         1 G6K      -0.077100
      2 C2           1.5290     0.0000     0.0000 c3         1 G6K      -0.154400
      3 C3           2.0310     0.0000     1.4210 c          1 G6K       0.677100
      4 O4           1.2430     0.0000     2.3430 o          1 G6K      -0.606100
      5 N5           3.3560     0.0000     1.6670 n          1 G6K      -0.501800
      6 C6           4.4200    -0.0010     0.6460 c3         1 G6K       0.090000
      7 C7           5.6530    -0.6120     1.3580 c3         1 G6K      -0.116400
      8 C8           5.5100    -0.0270     2.7880 c3         1 G6K       0.230500
      9 C9           3.9810     0.0050     2.9990 c3         1 G6K       0.097000
     10 N10          6.1530    -0.9000     3.7720 nu         1 G6K      -0.883900
     11 C11          7.5030    -0.7620     4.0420 ca         1 G6K       0.990900
     12 N12          8.0690    -1.5600     4.9350 nb         1 G6K      -0.802000
     13 C13          9.3590    -1.4580     5.2200 ca         1 G6K       0.546600
     14 C14          9.9890    -2.3740     6.2380 c3         1 G6K       0.114500
     15 N15          9.7950    -1.8170     7.5840 n3         1 G6K      -0.716600
     16 C16         10.1830    -2.7880     8.6160 c3         1 G6K       0.120800
     17 C17          9.9090    -2.1910    10.0000 c3         1 G6K       0.140400
     18 O18         10.6150    -0.9540    10.1270 os         1 G6K      -0.424600
     19 C19         10.2620     0.0160     9.1370 c3         1 G6K       0.140400
     20 C20         10.5390    -0.5590     7.7460 c3         1 G6K       0.120800
     21 C21         10.1200    -0.5040     4.5730 ca         1 G6K      -0.483600
     22 C22          9.4970     0.3230     3.6370 ca         1 G6K       0.749200
     23 N23         10.2220     1.2950     2.9620 nu         1 G6K      -0.790900
     24 C24          9.6210     2.0390     1.9650 cc         1 G6K       0.629100
     25 N25         10.2300     2.8900     1.2130 nd         1 G6K      -0.651100
     26 C26          9.5040     3.5380     0.2820 ca         1 G6K       0.034100
     27 C27          9.9230     4.5060    -0.6560 ca         1 G6K      -0.053000
     28 C28          8.9910     5.0390    -1.5210 ca         1 G6K      -0.251300
     29 C29          7.6740     4.6180    -1.4530 ca         1 G6K       0.420200
     30 N30          7.2980     3.7150    -0.5730 nb         1 G6K      -0.655000
     31 C31          8.1540     3.1690     0.2840 ca         1 G6K       0.393600
     32 S32          7.9170     1.9530     1.5390 ss         1 G6K      -0.089500
     33 N33          8.1990     0.1620     3.3960 nb         1 G6K      -0.867000
     34 H1          -0.3610    -0.8850     0.5100 hc         1 G6K       0.043700
     35 H2          -0.3610     0.0010    -1.0210 hc         1 G6K       0.043700
     36 H3          -0.3610     0.8840     0.5120 hc         1 G6K       0.043700
     37 H4           1.8900     0.8850    -0.5110 hc         1 G6K       0.059200
     38 H5           1.8900    -0.8850    -0.5110 hc         1 G6K       0.059200
     39 H6           4.6350     1.0120     0.3270 h1         1 G6K       0.052700
     40 H7           4.1310    -0.6150    -0.1980 h1         1 G6K       0.052700
     41 H8           5.5910    -1.6940     1.3750 hc         1 G6K       0.069200
     42 H9           6.5730    -0.2760     0.8940 hc         1 G6K       0.069200
     43 H10          5.9190     0.9750     2.8300 h1         1 G6K       0.092700
     44 H11          3.7020     0.9060     3.5320 h1         1 G6K       0.058700
     45 H12          3.6680    -0.8710     3.5540 h1         1 G6K       0.058700
     46 H13          5.6130    -1.5870     4.2600 hn         1 G6K       0.466800
     47 H14          9.5250    -3.3510     6.1810 h1         1 G6K       0.055200
     48 H15         11.0490    -2.4650     6.0340 h1         1 G6K       0.055200
     49 H17         11.2380    -3.0120     8.5220 h1         1 G6K       0.043950
     50 H18          9.6030    -3.6950     8.4940 h1         1 G6K       0.043950
     51 H19         10.2480    -2.8800    10.7640 h1         1 G6K       0.055950
     52 H20          8.8460    -2.0130    10.1120 h1         1 G6K       0.055950
     53 H21         10.8550     0.9110     9.2810 h1         1 G6K       0.055950
     54 H22          9.2090     0.2560     9.2260 h1         1 G6K       0.055950
     55 H23         10.2170     0.1490     6.9920 h1         1 G6K       0.043950
     56 H24         11.5990    -0.7510     7.6390 h1         1 G6K       0.043950
     57 H25         11.1770    -0.3990     4.7870 ha         1 G6K       0.146000
     58 H26         11.1800     1.4590     3.2000 hn         1 G6K       0.479800
     59 H27         10.9580     4.8240    -0.6960 ha         1 G6K       0.150000
     60 H28          9.2880     5.7830    -2.2500 ha         1 G6K       0.142000
     61 H29          6.9420     5.0380    -2.1330 h4         1 G6K       0.027100
@<TRIPOS>BOND
     1    19    18 1
     2    19    20 1
     3    18    17 1
     4    17    16 1
     5    20    15 1
     6    15    16 1
     7    15    14 1
     8    14    13 1
     9    21    13 ar
    10    21    22 ar
    11    13    12 ar
    12    23    22 1
    13    23    24 1
    14    22    33 ar
    15    12    11 ar
    16    25    24 2
    17    25    26 1
    18    24    32 1
    19    33    11 ar
    20    11    10 1
    21    26    27 ar
    22    26    31 ar
    23    27    28 ar
    24    10     8 1
    25    32    31 1
    26    31    30 ar
    27    28    29 ar
    28     7     8 1
    29     7     6 1
    30     8     9 1
    31    30    29 ar
    32     9     5 1
    33     6     5 1
    34     5     3 1
    35     3     2 1
    36     3     4 2
    37     2     1 1
    38     1    34 1
    39     1    35 1
    40     1    36 1
    41     2    37 1
    42     2    38 1
    43     6    39 1
    44     6    40 1
    45     7    41 1
    46     7    42 1
    47     8    43 1
    48     9    44 1
    49     9    45 1
    50    10    46 1
    51    14    47 1
    52    14    48 1
    53    16    49 1
    54    16    50 1
    55    17    51 1
    56    17    52 1
    57    19    53 1
    58    19    54 1
    59    20    55 1
    60    20    56 1
    61    21    57 1
    62    23    58 1
    63    27    59 1
    64    28    60 1
    65    29    61 1
@<TRIPOS>SUBSTRUCTURE
     1 G6K         1 TEMP              0 ****  ****    0 ROOT
