@<TRIPOS>MOLECULE
molecule
   27    26     1     0     0
SMALL
bcc


@<TRIPOS>ATOM
      1 C1           0.0000     0.0000     0.0000 c          1 G6Q       0.539900
      2 C2           1.5060     0.0000     0.0000 c3         1 G6Q       0.014100
      3 C3           2.0170     0.0000     1.4420 c3         1 G6Q       0.149100
      4 C4           3.5460    -0.0000     1.4420 c3         1 G6Q       0.154100
      5 C5           4.0580    -0.0010     2.8830 c3         1 G6Q       0.120100
      6 C6           5.5870     0.0000     2.8830 c3         1 G6Q       0.143400
      7 O1          -0.6050     0.9050    -0.5220 o          1 G6Q      -0.548100
      8 O2           1.9830    -1.1650    -0.6740 oh         1 G6Q      -0.540800
      9 O3           1.5420    -1.1680     2.1140 oh         1 G6Q      -0.570800
     10 O4           4.0240    -1.1650     0.7660 oh         1 G6Q      -0.570800
     11 O5           3.5810     1.1640     3.5590 oh         1 G6Q      -0.636800
     12 O6           6.0640    -0.0010     4.2290 os         1 G6Q      -0.543200
     13 P            7.6710    -0.0010     4.1550 p5         1 G6Q       1.157900
     14 O1P          8.1310     1.2080     3.4360 o          1 G6Q      -0.911833
     15 O2P          8.2790    -0.0010     5.6450 o          1 G6Q      -0.911833
     16 O3P          8.1720    -1.3130     3.3700 o          1 G6Q      -0.911833
     17 H1          -0.5410    -0.8260     0.4460 h4         1 G6Q       0.001200
     18 H2           1.8670     0.8850    -0.5100 h1         1 G6Q       0.053700
     19 H3           1.6560     0.8840     1.9530 h1         1 G6Q       0.056700
     20 H4           3.9070     0.8850     0.9320 h1         1 G6Q       0.041700
     21 H5           3.6980    -0.8860     3.3930 h1         1 G6Q       0.048700
     22 H61          5.9470     0.8860     2.3740 h1         1 G6Q       0.050200
     23 H62          5.9490    -0.8830     2.3720 h1         1 G6Q       0.050200
     24 HO2          1.7570    -1.1140    -1.5880 ho         1 G6Q       0.377000
     25 HO3          0.8570    -0.9280     2.7150 ho         1 G6Q       0.378000
     26 HO4          4.6640    -0.9140     0.1210 ho         1 G6Q       0.400000
     27 HO5          3.4410     0.9640     4.4700 ho         1 G6Q       0.410000
@<TRIPOS>BOND
     1     1     2 1
     2     1     7 2
     3     1    17 1
     4     2     3 1
     5     2     8 1
     6     2    18 1
     7     3     4 1
     8     3     9 1
     9     3    19 1
    10     4     5 1
    11     4    10 1
    12     4    20 1
    13     5     6 1
    14     5    11 1
    15     5    21 1
    16     6    12 1
    17     6    22 1
    18     6    23 1
    19     8    24 1
    20     9    25 1
    21    10    26 1
    22    11    27 1
    23    12    13 1
    24    13    14 1
    25    13    15 1
    26    13    16 1
@<TRIPOS>SUBSTRUCTURE
     1 G6Q         1 TEMP              0 ****  ****    0 ROOT
