@<TRIPOS>MOLECULE
G6Q
   27    26     1     0     0
SMALL
bcc


@<TRIPOS>ATOM
      1 C1         -0.2850    0.0170    0.1670 c         1 G6Q      0.584900
      2 C2          1.1890    0.3300    0.0510 c3        1 G6Q      0.034100
      3 C3          1.9130   -0.1540    1.3260 c3        1 G6Q      0.045100
      4 C4          3.4690    0.0540    1.1410 c3        1 G6Q      0.364800
      5 C5          4.1030    0.1560    2.5560 c3        1 G6Q      0.075100
      6 C6          5.6170    0.3940    2.4590 c3        1 G6Q      0.167400
      7 O1         -1.1620    0.8680    0.3550 o         1 G6Q     -0.607100
      8 O2          1.6480   -0.3160   -1.1250 oh        1 G6Q     -0.662800
      9 O3          1.6290   -1.5270    1.5110 oh        1 G6Q     -0.656800
     10 O4          3.9480   -0.9520    0.4150 o         1 G6Q     -0.902500
     11 O5          3.4740    1.2270    3.2550 oh        1 G6Q     -0.643800
     12 O6          6.1230    0.7310    3.7230 os        1 G6Q     -0.606200
     13 P           7.3540   -0.1740    4.3290 p5        1 G6Q      1.433800
     14 O1P         8.2920   -0.4950    3.2300 o         1 G6Q     -0.850000
     15 O2P         7.7410    0.4100    5.6300 o         1 G6Q     -0.850000
     16 O3P         6.5420   -1.5730    4.5700 oh        1 G6Q     -0.786400
     17 H1         -0.5350   -1.0640    0.0860 h4        1 G6Q     -0.010800
     18 H2          1.3510    1.4370   -0.0740 h1        1 G6Q      0.047700
     19 H3          1.5160    0.3870    2.2200 h1        1 G6Q      0.059700
     20 H4          3.5900    1.0730    0.6530 h1        1 G6Q     -0.059300
     21 H5          3.9100   -0.7960    3.1240 h1        1 G6Q      0.021700
     22 H61         5.8020    1.2610    1.7640 h1        1 G6Q      0.033700
     23 H62         6.1280   -0.5190    2.0550 h1        1 G6Q      0.033700
     24 HO2         2.5080   -0.7360   -0.9110 ho        1 G6Q      0.472000
     25 HO3         2.4030   -2.0140    1.1650 ho        1 G6Q      0.433000
     26 HO4         6.4300   -2.0670    3.7660 ho        1 G6Q      0.424000
     27 HO5         4.0700    1.4650    3.9760 ho        1 G6Q      0.404000
@<TRIPOS>BOND
     1    1    2 1   
     2    1    7 2   
     3    1   17 1   
     4    2    3 1   
     5    2    8 1   
     6    2   18 1   
     7    3    4 1   
     8    3    9 1   
     9    3   19 1   
    10    4    5 1   
    11    4   10 1   
    12    4   20 1   
    13    5    6 1   
    14    5   11 1   
    15    5   21 1   
    16    6   12 1   
    17    6   22 1   
    18    6   23 1   
    19    8   24 1   
    20    9   25 1   
    21   11   27 1   
    22   12   13 1   
    23   13   14 1   
    24   13   15 1   
    25   13   16 1   
    26   16   26 1   
@<TRIPOS>SUBSTRUCTURE
     1 G6Q         1 TEMP              0 ****  ****    0 ROOT
