@<TRIPOS>MOLECULE
G6T
   51    54     1     0     0
SMALL
bcc


@<TRIPOS>ATOM
      1 N1           0.0000     0.0000     0.0000 nb         1 G6T      -0.717000
      2 C2           1.3260     0.0000     0.0000 ca         1 G6T       0.749900
      3 N2           1.9950     0.0010    -1.2130 nv         1 G6T      -0.578500
      4 N3           2.0320     0.0000     1.1170 nb         1 G6T      -0.636000
      5 C4           1.4200     0.0000     2.3060 ca         1 G6T       0.577300
      6 C5           0.0150     0.0000     2.3410 ca         1 G6T      -0.560800
      7 C6          -0.6870    -0.0000     1.1370 ca         1 G6T       0.715600
      8 O6          -2.0420     0.0000     1.1270 os         1 G6T      -0.438100
      9 N7          -0.3400     0.0000     3.6780 na         1 G6T       0.335700
     10 C8           0.8210     0.0000     4.3980 cc         1 G6T       0.226400
     11 N9           1.8490     0.0010     3.5800 nd         1 G6T      -0.581700
     12 CAL         -2.6810     0.0010    -0.1520 c3         1 G6T       0.219400
     13 CAM         -4.1990     0.0010     0.0370 c3         1 G6T      -0.062700
     14 CAN         -4.8820     0.1270    -1.3260 c3         1 G6T      -0.019900
     15 CAO         -6.4010     0.1270    -1.1380 c3         1 G6T      -0.022400
     16 CAP         -6.8320    -1.1800    -0.4690 c3         1 G6T      -0.025400
     17 CAQ         -6.1490    -1.3060     0.8930 c3         1 G6T      -0.022400
     18 CAR         -4.6300    -1.3070     0.7050 c3         1 G6T      -0.019900
     19 CAS          0.9070     0.0010     5.8730 ca         1 G6T      -0.083900
     20 CAT         -0.2560     0.0020     6.6430 ca         1 G6T      -0.016000
     21 CAU         -0.1700     0.0020     8.0200 ca         1 G6T      -0.094000
     22 CAV          1.0690     0.0030     8.6380 ca         1 G6T       0.003000
     23 CAW          2.2260     0.0030     7.8800 ca         1 G6T      -0.220500
     24 CAX          2.1530    -0.0040     6.5030 ca         1 G6T       0.041000
     25 SAY          3.7980     0.0040     8.6770 sy         1 G6T       0.936200
     26 OAZ          3.5910     0.5500     9.9730 o          1 G6T      -0.491800
     27 NBA          4.2360    -1.5770     8.9000 nz         1 G6T      -0.132500
     28 OBB          4.7200     0.5480     7.7440 o          1 G6T      -0.491800
     29 HN2          2.6080    -0.7560    -1.4480 hn         1 G6T       0.283300
     30 HN2A         1.8650     0.7570    -1.8560 hn         1 G6T       0.283300
     31 HN7         -1.2700    -0.0000     4.0470 hn         1 G6T       0.134700
     32 HAL         -2.3850     0.8860    -0.7020 h1         1 G6T       0.019200
     33 HALA        -2.3850    -0.8830    -0.7030 h1         1 G6T       0.019200
     34 HAM         -4.4900     0.8360     0.6620 hc         1 G6T       0.036700
     35 HAN         -4.5970    -0.7110    -1.9500 hc         1 G6T       0.016700
     36 HANA        -4.5780     1.0540    -1.7960 hc         1 G6T       0.016700
     37 HAO         -6.8830     0.2130    -2.1040 hc         1 G6T       0.015200
     38 HAOA        -6.6860     0.9630    -0.5100 hc         1 G6T       0.015200
     39 HAP         -6.5440    -2.0160    -1.0950 hc         1 G6T       0.017200
     40 HAPA        -7.9070    -1.1770    -0.3340 hc         1 G6T       0.017200
     41 HAQ         -6.4330    -0.4680     1.5170 hc         1 G6T       0.015200
     42 HAQA        -6.4530    -2.2330     1.3630 hc         1 G6T       0.015200
     43 HAR         -4.3460    -2.1430     0.0770 hc         1 G6T       0.016700
     44 HARA        -4.1480    -1.3930     1.6710 hc         1 G6T       0.016700
     45 HAT         -1.2260     0.0020     6.1610 ha         1 G6T       0.116000
     46 HAU         -1.0730     0.0030     8.6190 ha         1 G6T       0.132000
     47 HAV          1.1320     0.0060     9.7190 ha         1 G6T       0.126000
     48 HAX          3.0600    -0.0040     5.9110 ha         1 G6T       0.153000
     49 HNBA         3.5570    -2.0330     9.4770 hn         1 G6T       0.314133
     50 HNBB         5.1320    -1.6150     9.3460 hn         1 G6T       0.314133
     51 HBA3         4.2850    -2.0380     8.0130 hn         1 G6T       0.314133
@<TRIPOS>BOND
     1     1     2 ar  
     2     1     7 ar  
     3     2     3 1   
     4     2     4 ar  
     5     3    29 1   
     6     3    30 1   
     7     4     5 ar  
     8     5     6 ar  
     9     5    11 1   
    10     6     7 ar  
    11     6     9 1   
    12     7     8 1   
    13     8    12 1   
    14     9    10 1   
    15     9    31 1   
    16    10    11 2   
    17    10    19 1   
    18    12    13 1   
    19    12    32 1   
    20    12    33 1   
    21    13    14 1   
    22    13    18 1   
    23    13    34 1   
    24    14    15 1   
    25    14    35 1   
    26    14    36 1   
    27    15    16 1   
    28    15    37 1   
    29    15    38 1   
    30    16    17 1   
    31    16    39 1   
    32    16    40 1   
    33    17    18 1   
    34    17    41 1   
    35    17    42 1   
    36    18    43 1   
    37    18    44 1   
    38    19    20 ar  
    39    19    24 ar  
    40    20    21 ar  
    41    20    45 1   
    42    21    22 ar  
    43    21    46 1   
    44    22    23 ar  
    45    22    47 1   
    46    23    24 ar  
    47    23    25 1   
    48    24    48 1   
    49    25    26 2   
    50    25    27 1   
    51    25    28 2   
    52    27    49 1   
    53    27    50 1   
    54    27    51 1   
@<TRIPOS>SUBSTRUCTURE
     1 G6T         1 TEMP              0 ****  ****    0 ROOT
