@<TRIPOS>MOLECULE
G6X
   72    77     1     0     0
SMALL
bcc


@<TRIPOS>ATOM
      1 C1           0.0000     0.0000     0.0000 c2         1 G6X      -0.113200
      2 C2           1.2900     0.0000     0.0000 c2         1 G6X      -0.179200
      3 C3           2.1280     0.0000     1.2380 c3         1 G6X       0.246300
      4 C4           1.3290     0.3980     2.4630 c3         1 G6X      -0.041400
      5 O5           0.0310    -1.6580     2.5710 os         1 G6X      -0.259900
      6 C6          -1.6430    -3.4540     2.1000 ca         1 G6X       0.124100
      7 C7          -2.8450    -3.6740     1.4320 ca         1 G6X      -0.175000
      8 C8          -3.5000    -2.6780     0.7220 ca         1 G6X      -0.099000
      9 C9          -3.7050    -0.2530     0.0120 c3         1 G6X       0.205100
     10 N10         -2.8130     0.5020    -0.8790 n3         1 G6X      -0.543600
     11 C11         -2.0880     1.6080    -0.1900 c3         1 G6X       0.147800
     12 C12         -1.7480     1.2410     1.2520 c3         1 G6X      -0.023400
     13 C13         -1.0890    -2.1730     2.0150 ca         1 G6X       0.120100
     14 C14         -1.7400    -1.2090     1.2340 ca         1 G6X      -0.145300
     15 C15         -2.9600    -1.4050     0.6380 ca         1 G6X      -0.058300
     16 C16         -1.6820    -5.7180     2.8280 c3         1 G6X       0.242700
     17 O17         -1.0330    -4.4450     2.8050 os         1 G6X      -0.292900
     18 O18          2.6630    -1.3100     1.4380 oh         1 G6X      -0.563800
     19 C19         -3.5430     1.0050    -2.0510 c3         1 G6X       0.154800
     20 C20         -4.0030    -0.1750    -2.9110 c3         1 G6X      -0.039400
     21 C21         -4.7640     0.3490    -4.1300 c3         1 G6X      -0.026400
     22 C22         -5.2230    -0.8300    -4.9890 c3         1 G6X      -0.019400
     23 C23         -5.9840    -0.3070    -6.2090 c3         1 G6X      -0.065400
     24 C24         -6.4440    -1.4870    -7.0690 c3         1 G6X       0.147000
     25 N25         -7.1720    -0.9860    -8.2370 n          1 G6X      -0.224200
     26 C26         -6.6480    -0.5780    -9.4010 c          1 G6X       0.663100
     27 C27         -7.5700    -0.1100   -10.4460 ca         1 G6X      -0.119600
     28 C28         -7.3030     0.3670   -11.7400 ca         1 G6X      -0.026000
     29 C29         -8.3330     0.7580   -12.5640 ca         1 G6X      -0.071000
     30 C30         -9.6480     0.6910   -12.1370 ca         1 G6X      -0.093000
     31 C31         -9.9310     0.2220   -10.8620 ca         1 G6X       0.034000
     32 C32         -8.9090    -0.1680   -10.0410 ca         1 G6X      -0.111500
     33 S33         -8.8270    -0.8130    -8.3940 sy         1 G6X       1.036900
     34 O34         -5.4460    -0.5930    -9.5870 o          1 G6X      -0.630500
     35 O35         -9.2340     0.2230    -7.5100 o          1 G6X      -0.565800
     36 O36         -9.3930    -2.1150    -8.4140 o          1 G6X      -0.565800
     37 C41         -0.0490    -0.2120     2.5020 c3         1 G6X       0.189100
     38 C42         -0.8570     0.0080     1.2260 c3         1 G6X       0.020500
     39 H1          -0.5010    -0.0080    -0.9610 ha         1 G6X       0.130000
     40 H2           1.7980     0.0000    -0.9570 ha         1 G6X       0.099000
     41 H3           2.9430     0.7020     1.1090 h1         1 G6X      -0.006300
     42 H4           1.8710     0.0830     3.3470 hc         1 G6X       0.030200
     43 H4A          1.2300     1.4770     2.4760 hc         1 G6X       0.030200
     44 H7          -3.2870    -4.6630     1.4680 ha         1 G6X       0.114000
     45 H8          -4.4340    -2.9010     0.2200 ha         1 G6X       0.103000
     46 H9          -4.5410    -0.6370    -0.5600 h1         1 G6X       0.022700
     47 H9A         -4.0690     0.4030     0.7930 h1         1 G6X       0.022700
     48 H11         -2.7120     2.4930    -0.1900 h1         1 G6X       0.014700
     49 H11A        -1.1700     1.8150    -0.7260 h1         1 G6X       0.014700
     50 H12         -1.2210     2.0630     1.7220 hc         1 G6X       0.027200
     51 H12A        -2.6590     1.0230     1.7970 hc         1 G6X       0.027200
     52 H16         -1.7710    -6.0960     1.8170 h1         1 G6X      -0.004633
     53 H16A        -2.6690    -5.6120     3.2620 h1         1 G6X      -0.004633
     54 H16B        -1.0980    -6.4100     3.4230 h1         1 G6X      -0.004633
     55 HO18         3.5860    -1.3050     1.2450 ho         1 G6X       0.379000
     56 H19         -4.4070     1.5720    -1.7230 h1         1 G6X       0.008200
     57 H19A        -2.8920     1.6450    -2.6350 h1         1 G6X       0.008200
     58 H20         -4.6540    -0.8150    -2.3270 hc         1 G6X       0.025700
     59 H20A        -3.1400    -0.7400    -3.2390 hc         1 G6X       0.025700
     60 H21         -4.1140     0.9900    -4.7130 hc         1 G6X       0.015700
     61 H21A        -5.6280     0.9150    -3.8010 hc         1 G6X       0.015700
     62 H22         -4.3600    -1.3950    -5.3180 hc         1 G6X       0.015700
     63 H22A        -5.8740    -1.4700    -4.4060 hc         1 G6X       0.015700
     64 H23         -5.3340     0.3330    -6.7930 hc         1 G6X       0.032700
     65 H23A        -6.8480     0.2580    -5.8810 hc         1 G6X       0.032700
     66 H24         -5.5800    -2.0520    -7.3970 h1         1 G6X       0.028200
     67 H24A        -7.0940    -2.1270    -6.4850 h1         1 G6X       0.028200
     68 H28         -6.2800     0.4270   -12.0920 ha         1 G6X       0.121000
     69 H29         -8.1130     1.1240   -13.5590 ha         1 G6X       0.109000
     70 H30        -10.4510     1.0010   -12.7940 ha         1 G6X       0.112000
     71 H31        -10.9570     0.1650   -10.5190 ha         1 G6X       0.111000
     72 H41         -0.5980     0.1670     3.3560 h1         1 G6X       0.021700
@<TRIPOS>BOND
     1     1     2 2   
     2     1    38 1   
     3     1    39 1   
     4     2     3 1   
     5     2    40 1   
     6     3     4 1   
     7     3    18 1   
     8     3    41 1   
     9     4    37 1   
    10     4    42 1   
    11     4    43 1   
    12     5    13 1   
    13     5    37 1   
    14     6     7 ar  
    15     6    13 ar  
    16     6    17 1   
    17     7     8 ar  
    18     7    44 1   
    19     8    15 ar  
    20     8    45 1   
    21     9    10 1   
    22     9    15 1   
    23     9    46 1   
    24     9    47 1   
    25    10    11 1   
    26    10    19 1   
    27    11    12 1   
    28    11    48 1   
    29    11    49 1   
    30    12    38 1   
    31    12    50 1   
    32    12    51 1   
    33    13    14 ar  
    34    14    15 ar  
    35    14    38 1   
    36    16    17 1   
    37    16    52 1   
    38    16    53 1   
    39    16    54 1   
    40    18    55 1   
    41    19    20 1   
    42    19    56 1   
    43    19    57 1   
    44    20    21 1   
    45    20    58 1   
    46    20    59 1   
    47    21    22 1   
    48    21    60 1   
    49    21    61 1   
    50    22    23 1   
    51    22    62 1   
    52    22    63 1   
    53    23    24 1   
    54    23    64 1   
    55    23    65 1   
    56    24    25 1   
    57    24    66 1   
    58    24    67 1   
    59    25    26 1   
    60    25    33 1   
    61    26    27 1   
    62    26    34 2   
    63    27    28 ar  
    64    27    32 ar  
    65    28    29 ar  
    66    28    68 1   
    67    29    30 ar  
    68    29    69 1   
    69    30    31 ar  
    70    30    70 1   
    71    31    32 ar  
    72    31    71 1   
    73    32    33 1   
    74    33    35 2   
    75    33    36 2   
    76    37    38 1   
    77    37    72 1   
@<TRIPOS>SUBSTRUCTURE
     1 G6X         1 TEMP              0 ****  ****    0 ROOT
