@<TRIPOS>MOLECULE
G6Y
   54    56     1     0     0
SMALL
bcc


@<TRIPOS>ATOM
      1 C4           0.0000     0.0000     0.0000 ca         1 G6Y       0.419600
      2 C5           1.3950     0.0000     0.0000 ca         1 G6Y      -0.134600
      3 C6           2.0610     0.0000     1.2420 ca         1 G6Y       0.513200
      4 N1           1.3390    -0.0010     2.3560 nb         1 G6Y      -0.677000
      5 N3          -0.6430    -0.0010     1.1560 nb         1 G6Y      -0.636000
      6 CBE         -1.0170     1.4510    -1.7350 c3         1 G6Y      -0.013100
      7 CBD         -0.7640     0.0060    -1.2990 c3         1 G6Y      -0.071700
      8 C2           0.0160    -0.0010     2.3060 ca         1 G6Y       0.686900
      9 NAG         -0.7010    -0.0010     3.4890 nv         1 G6Y      -0.650500
     10 NAH          3.4430    -0.0000     1.3000 nv         1 G6Y      -0.564500
     11 CAI          2.1300     0.0000    -1.2290 cg         1 G6Y      -0.149000
     12 CAJ          2.7170    -0.0090    -2.2460 c1         1 G6Y      -0.094100
     13 CAK          3.6840     0.2640    -3.4700 c3         1 G6Y       0.116700
     14 CBC          3.1690    -0.8010    -4.5780 c3         1 G6Y      -0.002100
     15 CAL          5.0840     0.5820    -3.0630 ca         1 G6Y       0.000700
     16 CAM          5.7470     1.5120    -3.4280 ca         1 G6Y      -0.112000
     17 CAQ          5.4350    -0.4580    -2.1610 ca         1 G6Y      -0.227000
     18 CAP          6.7090    -0.4240    -1.6080 ca         1 G6Y       0.096100
     19 OAX          7.2780    -1.3240    -0.8550 os         1 G6Y      -0.278900
     20 CAY          8.2020    -0.7540     0.0860 c3         1 G6Y       0.223700
     21 CAO          7.5420     0.8160    -2.1180 ca         1 G6Y      -0.251000
     22 CAN          7.2190     1.8050    -2.9720 cp         1 G6Y       0.088000
     23 CAR          8.0200     2.8210    -3.3360 cp         1 G6Y      -0.163000
     24 CAS          7.4070     3.7430    -4.2730 ca         1 G6Y      -0.042500
     25 CAT          8.2780     4.7360    -4.5890 ca         1 G6Y      -0.171500
     26 CAU          9.7060     5.1100    -4.2100 ca         1 G6Y       0.132400
     27 CAZ         10.5940     5.9710    -4.3960 c          1 G6Y       0.858200
     28 OBB         10.3370     6.9130    -5.3380 o          1 G6Y      -0.834300
     29 OBA         11.7160     6.2930    -3.6810 o          1 G6Y      -0.834300
     30 CAV         10.0050     3.8580    -3.1790 ca         1 G6Y      -0.171500
     31 CAW          9.4590     3.0090    -2.8190 ca         1 G6Y      -0.042500
     32 H1           0.0260     1.6830    -1.9140 hc         1 G6Y       0.015700
     33 H2          -1.7500     2.2010    -1.4640 hc         1 G6Y       0.015700
     34 H3          -1.0210     1.2490    -2.8000 hc         1 G6Y       0.015700
     35 H4          -1.5240    -0.6720    -0.9320 hc         1 G6Y       0.023200
     36 H5          -0.4530    -0.5840    -2.1530 hc         1 G6Y       0.023200
     37 H6          -0.9490    -0.9150     3.8130 hn         1 G6Y       0.295800
     38 H7          -0.9040     0.9310     3.7910 hn         1 G6Y       0.295800
     39 H8           3.6570     0.9380     1.5730 hn         1 G6Y       0.246800
     40 H9           3.9540    -0.5870     1.9290 hn         1 G6Y       0.246800
     41 H10          3.2860     1.1750    -3.9010 hc         1 G6Y      -0.009300
     42 H11          2.3530    -0.3510    -5.1310 hc         1 G6Y       0.023033
     43 H12          4.0340    -0.7820    -5.2300 hc         1 G6Y       0.023033
     44 H13          3.2880    -1.6770    -3.9520 hc         1 G6Y       0.023033
     45 H14          5.1870     2.3570    -3.8080 ha         1 G6Y       0.100000
     46 H15          5.0910    -1.2990    -1.5710 ha         1 G6Y       0.140000
     47 H16          7.8020    -0.0100     0.7650 h1         1 G6Y       0.000367
     48 H17          9.1000    -0.5580    -0.4860 h1         1 G6Y       0.000367
     49 H18          8.4080    -1.3880     0.9400 h1         1 G6Y       0.000367
     50 H19          8.5120     0.6230    -1.6770 ha         1 G6Y       0.098000
     51 H20          6.4830     3.6320    -4.8270 ha         1 G6Y       0.113000
     52 H21          8.1120     5.2830    -5.5090 ha         1 G6Y       0.091500
     53 H23         11.0230     3.8920    -2.8110 ha         1 G6Y       0.091500
     54 H24          9.4710     2.9730    -1.7370 ha         1 G6Y       0.113000
@<TRIPOS>BOND
     1     1     2 ar  
     2     1     5 ar  
     3     1     7 1   
     4     2     3 ar  
     5     2    11 1   
     6     3     4 ar  
     7     3    10 1   
     8     4     8 ar  
     9     5     8 ar  
    10     6     7 1   
    11     6    32 1   
    12     6    33 1   
    13     6    34 1   
    14     7    35 1   
    15     7    36 1   
    16     8     9 1   
    17     9    37 1   
    18     9    38 1   
    19    10    39 1   
    20    10    40 1   
    21    11    12 3   
    22    12    13 1   
    23    13    14 1   
    24    13    15 1   
    25    13    41 1   
    26    14    42 1   
    27    14    43 1   
    28    14    44 1   
    29    15    16 ar  
    30    15    17 ar  
    31    16    22 ar  
    32    16    45 1   
    33    17    18 ar  
    34    17    46 1   
    35    18    19 1   
    36    18    21 ar  
    37    19    20 1   
    38    20    47 1   
    39    20    48 1   
    40    20    49 1   
    41    21    22 ar  
    42    21    50 1   
    43    22    23 1   
    44    23    24 ar  
    45    23    31 ar  
    46    24    25 ar  
    47    24    51 1   
    48    25    26 ar  
    49    25    52 1   
    50    26    27 1   
    51    26    30 ar  
    52    27    28 1   
    53    27    29 1   
    54    30    31 ar  
    55    30    53 1   
    56    31    54 1   
@<TRIPOS>SUBSTRUCTURE
     1 G6Y         1 TEMP              0 ****  ****    0 ROOT
