@<TRIPOS>MOLECULE
molecule
   54    56     1     0     0
SMALL
bcc


@<TRIPOS>ATOM
      1 N1           0.0000     0.0000     0.0000 na         1 G71      -0.682600
      2 C2           1.3570     0.0000     0.0000 cc         1 G71       0.568100
      3 N3           2.0700     0.0000     1.1070 nd         1 G71      -0.703100
      4 C4           1.4810     0.0010     2.3130 c          1 G71       0.736100
      5 N5          -2.0190     0.0060     1.5000 na         1 G71      -0.160100
      6 C6          -2.1770     0.0040     2.8620 cd         1 G71      -0.076600
      7 C7          -0.9680     0.0030     3.4520 cc         1 G71      -0.117000
      8 C8           0.0180     0.0010     2.3760 cc         1 G71      -0.240600
      9 C9          -0.7000     0.0010     1.1830 cd         1 G71       0.103300
     10 O10          2.1490    -0.0000     3.3340 o          1 G71      -0.520100
     11 N11          2.0130    -0.0010    -1.2020 nz         1 G71      -0.711600
     12 S12         -7.1160    -2.7480     7.4430 ss         1 G71      -0.065800
     13 C13         -8.8670    -2.8290     7.3150 cc         1 G71      -0.054700
     14 C14         -9.2140    -2.9430     5.9980 cd         1 G71      -0.124000
     15 C15         -8.1330    -2.9630     5.1510 cd         1 G71      -0.165000
     16 C16         -6.9400    -2.8690     5.7500 cc         1 G71      -0.104400
     17 O18        -11.0030    -2.8460     8.2380 o          1 G71      -0.616100
     18 N19         -9.3400    -2.6680     9.7010 ns         1 G71      -0.526900
     19 C20        -10.2780    -2.6210    10.8260 c3         1 G71       0.082700
     20 C21         -9.5750    -3.1080    12.0950 c3         1 G71      -0.196400
     21 C22         -9.2050    -4.5840    11.9380 c3         1 G71      -0.141400
     22 C23         -8.5130    -5.0640    13.1880 c          1 G71       0.890600
     23 O24         -8.0950    -6.3360    13.2780 o          1 G71      -0.804300
     24 O25         -8.3350    -4.3030    14.1110 o          1 G71      -0.804300
     25 C26        -10.7520    -1.2050    11.0270 c          1 G71       0.888600
     26 O27        -11.6220    -0.9210    12.0080 o          1 G71      -0.792300
     27 O28        -10.3480    -0.3250    10.3030 o          1 G71      -0.792300
     28 C29         -3.4980     0.0040     3.5860 c3         1 G71      -0.014100
     29 C30         -3.8880    -1.4330     3.9390 c3         1 G71      -0.082400
     30 C31         -5.2290    -1.4330     4.6730 c3         1 G71      -0.081400
     31 C32         -5.6180    -2.8700     5.0270 c3         1 G71       0.006900
     32 H2          -2.7680     0.0070     0.8370 hn         1 G71       0.297700
     33 H3          -0.7660     0.0010     4.5160 ha         1 G71       0.188000
     34 H4           1.7570     0.8150    -1.7220 hn         1 G71       0.452133
     35 H5           1.7610    -0.8200    -1.7190 hn         1 G71       0.452133
     36 H6         -10.2400    -3.0110     5.6560 ha         1 G71       0.167000
     37 H7          -8.2380    -3.0490     4.0760 ha         1 G71       0.127000
     38 H8          -8.3570    -2.5770     9.8650 hn         1 G71       0.314500
     39 H9         -11.1270    -3.2600    10.6160 h1         1 G71       0.056700
     40 H10        -10.5370    -3.5180    11.8140 hc         1 G71       0.105200
     41 H11         -9.7780    -2.6850    13.0720 hc         1 G71       0.105200
     42 H12         -8.5410    -4.7020    11.0900 hc         1 G71       0.026700
     43 H13        -10.1030    -5.1670    11.7770 hc         1 G71       0.026700
     44 H16         -4.2590     0.4380     2.9480 hc         1 G71       0.065700
     45 H17         -3.4120     0.5880     4.4940 hc         1 G71       0.065700
     46 H18         -3.1270    -1.8670     4.5760 hc         1 G71       0.044700
     47 H19         -3.9740    -2.0170     3.0300 hc         1 G71       0.044700
     48 H20         -5.9900    -0.9990     4.0360 hc         1 G71       0.053200
     49 H21         -5.1430    -0.8480     5.5820 hc         1 G71       0.053200
     50 H22         -4.8570    -3.3030     5.6650 hc         1 G71       0.045700
     51 H23         -5.7030    -3.4550     4.1190 hc         1 G71       0.045700
     52 H24         -0.4960    -0.0000    -0.8690 hn         1 G71       0.426800
     53 H113         3.0010     0.0010    -1.0420 hn         1 G71       0.452133
     54 C17         -9.8050    -2.7820     8.4410 c          1 G71       0.686700
@<TRIPOS>BOND
     1    11     2 1
     2     3     2 2
     3     3     4 1
     4     2     1 1
     5    10     4 2
     6     4     8 1
     7     1     9 1
     8     8     9 2
     9     8     7 1
    10     9     5 1
    11     7     6 2
    12     5     6 1
    13     6    28 1
    14    28    29 1
    15    29    30 1
    16    30    31 1
    17    27    25 1
    18    31    16 1
    19    16    15 2
    20    16    12 1
    21    15    14 1
    22    12    13 1
    23    25    26 1
    24    25    19 1
    25    14    13 2
    26    13    54 1
    27    54    18 1
    28    54    17 2
    29    18    19 1
    30    19    20 1
    31    20    21 1
    32    21    22 1
    33    22    23 1
    34    22    24 1
    35     5    32 1
    36     7    33 1
    37    11    34 1
    38    11    35 1
    39    14    36 1
    40    15    37 1
    41    18    38 1
    42    19    39 1
    43    20    40 1
    44    20    41 1
    45    21    42 1
    46    21    43 1
    47    28    44 1
    48    28    45 1
    49    29    46 1
    50    29    47 1
    51    30    48 1
    52    30    49 1
    53    31    50 1
    54    31    51 1
    55     1    52 1
    56    53    11 1
@<TRIPOS>SUBSTRUCTURE
     1 G71         1 TEMP              0 ****  ****    0 ROOT
