@<TRIPOS>MOLECULE
molecule
   52    55     1     0     0
SMALL
bcc


@<TRIPOS>ATOM
      1 C01          0.0000     0.0000     0.0000 c3         1 G73       0.128700
      2 O02          1.4290     0.0000     0.0000 os         1 G73      -0.328900
      3 C03          2.0460     0.0000     1.2110 ca         1 G73       0.128100
      4 C04          3.4320    -0.0000     1.2840 ca         1 G73      -0.175000
      5 C05          4.0600     0.0000     2.5140 ca         1 G73      -0.105000
      6 C06          1.2910     0.0070     2.3750 ca         1 G73      -0.175000
      7 C07          1.9170     0.0080     3.6060 ca         1 G73      -0.105000
      8 C08          3.3040     0.0010     3.6790 ca         1 G73       0.110600
      9 N09          3.9400     0.0010     4.9250 nu         1 G73      -0.766300
     10 C10          5.1530    -0.6500     5.0850 ca         1 G73       0.782200
     11 N11          5.6740    -1.3670     4.0930 nb         1 G73      -0.846000
     12 C12          6.8350    -1.9940     4.2380 ca         1 G73       0.970900
     13 N13          7.3360    -2.7280     3.1740 nu         1 G73      -0.765300
     14 C14          8.4940    -3.4880     3.3350 ca         1 G73       0.165600
     15 C15          8.4500    -4.8670     3.1520 ca         1 G73      -0.073300
     16 C16          7.1520    -5.5360     2.7800 c3         1 G73      -0.045800
     17 C17          9.5910    -5.6200     3.3090 ca         1 G73      -0.105500
     18 C18         10.7960    -4.9970     3.6550 ca         1 G73      -0.080800
     19 C19         12.0180    -5.7980     3.8230 ce         1 G73      -0.042200
     20 C20         13.1790    -5.1960     4.1570 cf         1 G73      -0.085700
     21 C21         14.3690    -5.9750     4.3210 ch         1 G73       0.195500
     22 N22         15.3020    -6.6090     4.4560 n1         1 G73      -0.374800
     23 C23         10.8350    -3.6100     3.8390 ca         1 G73      -0.105500
     24 C24          9.6910    -2.8640     3.6740 ca         1 G73      -0.073300
     25 C25          9.7330    -1.3690     3.8650 c3         1 G73      -0.045800
     26 N26          7.5290    -1.9420     5.3610 nb         1 G73      -0.787000
     27 C27          7.0780    -1.2440     6.4080 ca         1 G73       0.680300
     28 C28          5.8560    -0.5640     6.2890 ca         1 G73      -0.451800
     29 N29          5.6440     0.0600     7.5030 na         1 G73      -0.248300
     30 C30          6.6970    -0.2440     8.2950 cc         1 G73       0.459700
     31 N31          7.5390    -1.0040     7.6510 nd         1 G73      -0.683700
     32 H1          -0.3610     0.8850     0.5100 h1         1 G73       0.041367
     33 H2          -0.3610    -0.8840     0.5110 h1         1 G73       0.041367
     34 H3          -0.3610    -0.0010    -1.0210 h1         1 G73       0.041367
     35 H4           4.0220    -0.0000     0.3750 ha         1 G73       0.142000
     36 H5           5.1420     0.0000     2.5690 ha         1 G73       0.146500
     37 H6           0.2090     0.0120     2.3190 ha         1 G73       0.142000
     38 H7           1.3260     0.0130     4.5140 ha         1 G73       0.146500
     39 H8           3.5730     0.5550     5.6740 hn         1 G73       0.447800
     40 H9           6.8300    -2.7660     2.3110 hn         1 G73       0.466800
     41 H10          6.7690    -5.0980     1.8660 hc         1 G73       0.047700
     42 H11          7.3210    -6.5950     2.6300 hc         1 G73       0.047700
     43 H12          6.4320    -5.3950     3.5770 hc         1 G73       0.047700
     44 H13          9.5560    -6.6930     3.1660 ha         1 G73       0.136000
     45 H14         11.9920    -6.8670     3.6530 ha         1 G73       0.139000
     46 H16         13.2110    -4.1220     4.3000 ha         1 G73       0.157000
     47 H18         11.7660    -3.1250     4.1060 ha         1 G73       0.136000
     48 H19          8.9490    -0.9080     3.2780 hc         1 G73       0.047700
     49 H20          9.5850    -1.1350     4.9130 hc         1 G73       0.047700
     50 H21         10.6960    -0.9910     3.5440 hc         1 G73       0.047700
     51 H22          4.8520     0.6210     7.7460 hn         1 G73       0.298700
     52 H23          6.8410     0.0870     9.3160 h5         1 G73       0.079800
@<TRIPOS>BOND
     1    30    29 1
     2    30    31 2
     3    29    28 1
     4    31    27 1
     5    28    27 ar
     6    28    10 ar
     7     7     6 ar
     8     7     8 ar
     9     9     8 1
    10     9    10 1
    11     6     3 ar
    12    27    26 ar
    13     8     5 ar
    14    10    11 ar
    15     3     2 1
    16     3     4 ar
    17    26    12 ar
    18     5     4 ar
    19    11    12 ar
    20     1     2 1
    21    12    13 1
    22    13    14 1
    23    16    15 1
    24    14    15 ar
    25    14    24 ar
    26    15    17 ar
    27    25    24 1
    28    24    23 ar
    29    17    18 ar
    30    23    18 ar
    31    18    19 1
    32    19    20 2
    33    20    21 1
    34    21    22 3
    35     1    32 1
    36     1    33 1
    37     1    34 1
    38     4    35 1
    39     5    36 1
    40     6    37 1
    41     7    38 1
    42     9    39 1
    43    13    40 1
    44    16    41 1
    45    16    42 1
    46    16    43 1
    47    17    44 1
    48    19    45 1
    49    20    46 1
    50    23    47 1
    51    25    48 1
    52    25    49 1
    53    25    50 1
    54    29    51 1
    55    30    52 1
@<TRIPOS>SUBSTRUCTURE
     1 G73         1 TEMP              0 ****  ****    0 ROOT
