@<TRIPOS>MOLECULE
G73
   52    56     1     0     0
SMALL
bcc


@<TRIPOS>ATOM
      1 C01          0.0000     0.0000     0.0000 c3         1 G73       0.046000
      2 O02          1.4290     0.0000     0.0000 os         1 G73      -0.188000
      3 C03          2.0460     0.0000     1.2110 ca         1 G73       0.097000
      4 C04          3.4320    -0.0000     1.2840 ca         1 G73      -0.159000
      5 C05          4.0600     0.0000     2.5140 ca         1 G73      -0.074500
      6 C06          1.2910     0.0070     2.3750 ca         1 G73      -0.159000
      7 C07          1.9170     0.0080     3.6060 ca         1 G73      -0.074500
      8 C08          3.3040     0.0010     3.6790 ca         1 G73      -0.132000
      9 N09          3.9400     0.0010     4.9250 nu         1 G73       0.185000
     10 C10          5.1530    -0.6500     5.0850 c2         1 G73       0.063000
     11 N11          5.6740    -1.3670     4.0930 n2         1 G73      -0.180000
     12 C12          6.8350    -1.9940     4.2380 c2         1 G73       0.014000
     13 N13          7.3360    -2.7280     3.1740 nu         1 G73       0.132000
     14 C14          8.4940    -3.4880     3.3350 ca         1 G73      -0.074000
     15 C15          8.4500    -4.8670     3.1520 ca         1 G73      -0.072000
     16 C16          7.1520    -5.5360     2.7800 c3         1 G73      -0.087500
     17 C17          9.5910    -5.6200     3.3090 ca         1 G73      -0.058000
     18 C18         10.7960    -4.9970     3.6550 ca         1 G73      -0.047000
     19 C19         12.0180    -5.7980     3.8230 c2         1 G73      -0.200000
     20 C20         13.1790    -5.1960     4.1570 c3         1 G73      -0.046000
     21 C21         14.3690    -5.9750     4.3210 c1         1 G73       0.256000
     22 N22         15.3110    -6.6000     4.4330 n1         1 G73      -0.074000
     23 C23         10.8350    -3.6100     3.8390 ca         1 G73      -0.058000
     24 C24          9.6910    -2.8640     3.6740 ca         1 G73      -0.072000
     25 C25          9.7330    -1.3690     3.8650 c3         1 G73      -0.087500
     26 N26          7.5290    -1.9420     5.3610 n2         1 G73      -0.129000
     27 C27          7.0780    -1.2440     6.4080 c2         1 G73       0.045000
     28 C28          5.8560    -0.5640     6.2890 c2         1 G73      -0.441000
     29 N29          5.6440     0.0600     7.5030 na         1 G73       0.341000
     30 C30          6.6970    -0.2440     8.2950 c2         1 G73      -0.193000
     31 N31          7.5390    -1.0040     7.6510 n2         1 G73      -0.089000
     32 H1          -0.3610    -1.0190     0.0730 h1         1 G73       0.039000
     33 H2          -0.3610     0.5730     0.8460 h1         1 G73       0.039000
     34 H3          -0.3610     0.4460    -0.9190 h1         1 G73       0.039000
     35 H4           4.0220    -0.0000     0.3750 ha         1 G73       0.121000
     36 H5           5.1420     0.0000     2.5690 ha         1 G73       0.118500
     37 H6           0.2090     0.0120     2.3180 ha         1 G73       0.121000
     38 H7           1.3260     0.0130     4.5140 ha         1 G73       0.118500
     39 H8           3.5010     0.4420     5.7090 hn         1 G73       0.070000
     40 H9           7.5910    -2.2650     2.3240 hn         1 G73       0.073000
     41 H10          6.3300    -5.0230     3.2650 hc         1 G73       0.057333
     42 H11          7.1730    -6.5700     3.1020 hc         1 G73       0.057333
     43 H12          7.0190    -5.4950     1.7060 hc         1 G73       0.057333
     44 H13          9.5560    -6.6930     3.1660 ha         1 G73       0.121500
     45 H14         12.9230    -5.5220     3.2960 DU         1 G73       0.110000
     46 H16         14.0790    -5.7860     4.2810 hc         1 G73      -0.153000
     47 H18         11.7660    -3.1250     4.1060 ha         1 G73       0.121500
     48 H19          8.7960    -1.0330     4.2930 hc         1 G73       0.057333
     49 H20         10.5470    -1.1140     4.5330 hc         1 G73       0.057333
     50 H21          9.8860    -0.8870     2.9080 hc         1 G73       0.057333
     51 H22          4.8520     0.6210     7.7460 hn         1 G73       0.073000
     52 H23          6.8420     0.0880     9.3160 h5         1 G73       0.161000
@<TRIPOS>BOND
     1     1     2 1   
     2     1    32 1   
     3     1    33 1   
     4     1    34 1   
     5     2     3 1   
     6     3     4 1   
     7     3     6 1   
     8     4     5 1   
     9     4    35 1   
    10     5     8 1   
    11     5    36 1   
    12     6     7 1   
    13     6    37 1   
    14     7     8 1   
    15     7    38 1   
    16     8     9 1   
    17     9    10 1   
    18     9    39 1   
    19    10    11 1   
    20    10    28 1   
    21    11    12 1   
    22    12    13 1   
    23    12    26 1   
    24    13    14 1   
    25    13    40 1   
    26    14    15 1   
    27    14    24 1   
    28    15    16 1   
    29    15    17 1   
    30    16    41 1   
    31    16    42 1   
    32    16    43 1   
    33    17    18 1   
    34    17    44 1   
    35    18    19 1   
    36    18    23 1   
    37    19    20 1   
    38    19    45 1   
    39    20    21 1   
    40    20    45 1   
    41    20    46 1   
    42    21    22 1   
    43    23    24 1   
    44    23    47 1   
    45    24    25 1   
    46    25    48 1   
    47    25    49 1   
    48    25    50 1   
    49    26    27 1   
    50    27    28 1   
    51    27    31 1   
    52    28    29 1   
    53    29    30 1   
    54    29    51 1   
    55    30    31 1   
    56    30    52 1   
@<TRIPOS>SUBSTRUCTURE
     1 G73         1 TEMP              0 ****  ****    0 ROOT
