@<TRIPOS>MOLECULE
G74
   52    52     1     0     0
SMALL
bcc


@<TRIPOS>ATOM
      1 O88         0.2610    0.7310    0.2730 o         1 G74     -0.528000
      2 C84         1.1220   -0.1390    0.1300 c         1 G74      0.631100
      3 O86         1.6560   -0.7540    1.2160 os        1 G74     -0.433900
      4 C3          1.1810   -0.3090    2.5080 c3        1 G74      0.140400
      5 C5          1.9350   -1.1240    3.5290 c3        1 G74     -0.104100
      6 C82         1.7100   -0.6360   -1.1620 c3        1 G74     -0.152400
      7 C63         0.7500   -0.3810   -2.3040 c3        1 G74     -0.117400
      8 C57         1.4350   -0.3980   -3.6690 c3        1 G74      0.121500
      9 C59         0.4850    0.1470   -4.7470 c3        1 G74     -0.091400
     10 C61         0.5850    1.6570   -4.8240 c3        1 G74     -0.149700
     11 C73        -0.4940    2.2760   -5.7230 c3        1 G74     -0.093400
     12 C71         0.2610    3.1950   -6.7120 c3        1 G74      0.084000
     13 N69         1.6740    2.9620   -6.4970 n         1 G74     -0.553900
     14 C65         1.9170    2.1040   -5.4530 c         1 G74      0.697500
     15 O66         3.0410    1.7220   -5.0750 o         1 G74     -0.679500
     16 N49         1.9120   -1.7950   -4.0040 n4        1 G74     -0.652800
     17 C39         2.9290   -1.7870   -5.1170 c         1 G74      0.644100
     18 O47         2.5710   -1.8870   -6.2820 o         1 G74     -0.442000
     19 O37         4.1570   -1.7010   -4.6070 os        1 G74     -0.415900
     20 C1          5.3280   -1.6010   -5.5370 c3        1 G74      0.204800
     21 C2          5.1430   -0.4120   -6.4520 c3        1 G74     -0.132100
     22 C4          6.4660   -1.3930   -4.5500 c3        1 G74     -0.132100
     23 C6          5.4550   -2.9090   -6.2870 c3        1 G74     -0.132100
     24 H821        2.6780   -0.0850   -1.3180 hc        1 G74      0.082200
     25 H822        1.9450   -1.7270   -1.0510 hc        1 G74      0.082200
     26 H31C        0.0750   -0.4850    2.5560 h1        1 G74      0.061200
     27 H32C        1.3880    0.7880    2.6020 h1        1 G74      0.061200
     28 H51C        3.0340   -0.9540    3.4370 hc        1 G74      0.056367
     29 H52C        1.7320   -2.2130    3.3940 hc        1 G74      0.056367
     30 H53C        1.6030   -0.8150    4.5500 hc        1 G74      0.056367
     31 H631        0.2930    0.6440   -2.1750 hc        1 G74      0.099200
     32 H632       -0.0990   -1.1140   -2.2690 hc        1 G74      0.099200
     33 H57         2.3750    0.2470   -3.6370 hx        1 G74      0.154700
     34 H591       -0.5710   -0.1430   -4.5000 hc        1 G74      0.081200
     35 H592        0.7320   -0.2840   -5.7570 hc        1 G74      0.081200
     36 H49         2.3380   -2.2030   -3.1630 hn        1 G74      0.464800
     37 H61         0.5290    2.1030   -3.7940 hc        1 G74      0.096700
     38 H731       -1.0590    1.4900   -6.2810 hc        1 G74      0.072700
     39 H732       -1.2240    2.8690   -5.1200 hc        1 G74      0.072700
     40 H711       -0.0090    2.9490   -7.7750 h1        1 G74      0.066200
     41 H712        0.0090    4.2750   -6.5230 h1        1 G74      0.066200
     42 H69         2.3740    3.4480   -6.9970 hn        1 G74      0.351500
     43 H21C        4.3790   -0.6300   -7.2370 hc        1 G74      0.073589
     44 H22C        6.1160   -0.1850   -6.9540 hc        1 G74      0.073589
     45 H23C        4.8200    0.4880   -5.8700 hc        1 G74      0.073589
     46 H41C        6.3430   -0.4230   -4.0110 hc        1 G74      0.073589
     47 H42C        7.4270   -1.3770   -5.1200 hc        1 G74      0.073589
     48 H43C        6.4980   -2.2230   -3.8040 hc        1 G74      0.073589
     49 H61C        6.3750   -2.8760   -6.9210 hc        1 G74      0.073589
     50 H62C        5.5410   -3.7660   -5.5770 hc        1 G74      0.073589
     51 H63C        4.5720   -3.0720   -6.9540 hc        1 G74      0.073589
     52 H492        1.1150   -2.3690   -4.3010 hn        1 G74      0.464800
@<TRIPOS>BOND
     1    1    2 2
     2    2    3 1
     3    2    6 1
     4    3    4 1
     5    4    5 1
     6    4   26 1
     7    4   27 1
     8    5   28 1
     9    5   29 1
    10    5   30 1
    11    6    7 1
    12    6   24 1
    13    6   25 1
    14    7    8 1
    15    7   31 1
    16    7   32 1
    17    8    9 1
    18    8   16 1
    19    8   33 1
    20    9   10 1
    21    9   34 1
    22    9   35 1
    23   10   11 1
    24   10   14 1
    25   10   37 1
    26   11   12 1
    27   11   38 1
    28   11   39 1
    29   12   13 1
    30   12   40 1
    31   12   41 1
    32   13   14 1
    33   13   42 1
    34   14   15 2
    35   16   17 1
    36   16   36 1
    37   16   52 1
    38   17   18 2
    39   17   19 1
    40   19   20 1
    41   20   21 1
    42   20   22 1
    43   20   23 1
    44   21   43 1
    45   21   44 1
    46   21   45 1
    47   22   46 1
    48   22   47 1
    49   22   48 1
    50   23   49 1
    51   23   50 1
    52   23   51 1
@<TRIPOS>SUBSTRUCTURE
     1 G74         1 TEMP              0 ****  ****    0 ROOT
