@<TRIPOS>MOLECULE
molecule
   72    74     1     0     0
SMALL
bcc


@<TRIPOS>ATOM
      1 O88          0.0000     0.0000     0.0000 o          1 G75      -0.557000
      2 C84          1.2090     0.0000     0.0000 c          1 G75       0.631100
      3 O86          1.8800     0.0000     1.1630 os         1 G75      -0.429900
      4 C3           1.0890     0.0000     2.3800 c3         1 G75       0.146400
      5 C5           2.0210    -0.0000     3.5940 c3         1 G75      -0.096100
      6 C82          1.9620    -0.0060    -1.3050 c3         1 G75      -0.126400
      7 C63          0.9680    -0.0110    -2.4670 c3         1 G75      -0.081400
      8 C57          1.7330    -0.0180    -3.7930 c3         1 G75       0.105700
      9 C59          0.7430     0.1020    -4.9540 c3         1 G75      -0.080400
     10 C61          0.0660     1.4730    -4.9060 c3         1 G75      -0.163700
     11 C65          1.0760     2.5720    -5.1550 c          1 G75       0.707500
     12 O66          1.8710     2.9820    -4.3360 o          1 G75      -0.633500
     13 N69          0.9660     3.0250    -6.4160 ns         1 G75      -0.583900
     14 C71         -0.0850     2.3100    -7.1500 c3         1 G75       0.094000
     15 C73         -0.9450     1.6180    -6.0680 c3         1 G75      -0.092400
     16 N49          2.4820    -1.2700    -3.9170 ns         1 G75      -0.581900
     17 C39          3.6160    -1.3070    -4.6450 c          1 G75       0.648100
     18 O47          3.9680    -0.3280    -5.2690 o          1 G75      -0.600100
     19 C37          4.4480    -2.5630    -4.6800 c3         1 G75       0.066700
     20 C41          4.9060    -2.9120    -3.2620 c3         1 G75      -0.047100
     21 C51          5.6320    -4.2320    -3.2810 ca         1 G75      -0.072300
     22 C55          7.0000    -4.2660    -3.4810 ca         1 G75      -0.113500
     23 C11          7.6670    -5.4760    -3.4980 ca         1 G75      -0.120500
     24 C9           6.9660    -6.6540    -3.3130 ca         1 G75      -0.122000
     25 C7           5.5990    -6.6210    -3.1120 ca         1 G75      -0.120500
     26 C53          4.9330    -5.4100    -3.0910 ca         1 G75      -0.113500
     27 N33          5.6210    -2.3480    -5.5320 ns         1 G75      -0.559900
     28 C31          6.2240    -3.3980    -6.1250 c          1 G75       0.750100
     29 O35          5.7960    -4.5210    -5.9520 o          1 G75      -0.609000
     30 O1           7.3010    -3.2000    -6.9080 os         1 G75      -0.433900
     31 C1           7.9000    -4.3770    -7.5140 c3         1 G75       0.216700
     32 C2           9.0840    -3.9630    -8.3490 ca         1 G75      -0.100300
     33 C4          10.3430    -3.9000    -7.7800 ca         1 G75      -0.102500
     34 C6          11.4290    -3.5210    -8.5470 ca         1 G75      -0.133000
     35 C8          11.2570    -3.2060    -9.8820 ca         1 G75      -0.117000
     36 C12          9.9990    -3.2700   -10.4500 ca         1 G75      -0.133000
     37 C10          8.9130    -3.6530    -9.6850 ca         1 G75      -0.102500
     38 H821         2.5850     0.8780    -1.3660 hc         1 G75       0.078200
     39 H822         2.5850    -0.8910    -1.3580 hc         1 G75       0.078200
     40 H31C         0.4640     0.8840     2.4050 h1         1 G75       0.048700
     41 H32C         0.4640    -0.8840     2.4050 h1         1 G75       0.048700
     42 H51C         1.4310    -0.0000     4.5030 hc         1 G75       0.047367
     43 H52C         2.6460    -0.8850     3.5700 hc         1 G75       0.047367
     44 H53C         2.6460     0.8850     3.5700 hc         1 G75       0.047367
     45 H631         0.3450    -0.8950    -2.4050 hc         1 G75       0.065700
     46 H632         0.3450     0.8740    -2.4140 hc         1 G75       0.065700
     47 H57          2.4210     0.8190    -3.8170 h1         1 G75       0.111700
     48 H591         1.2720    -0.0070    -5.8930 hc         1 G75       0.056700
     49 H592        -0.0080    -0.6740    -4.8710 hc         1 G75       0.056700
     50 H49          2.1210    -2.1110    -3.5120 hn         1 G75       0.315500
     51 H61         -0.4300     1.6250    -3.9550 hc         1 G75       0.085700
     52 H731        -1.7780     2.2470    -5.7770 hc         1 G75       0.061200
     53 H732        -1.2830     0.6470    -6.4070 hc         1 G75       0.061200
     54 H69          1.6140     3.6680    -6.8260 hn         1 G75       0.339500
     55 H711         0.3550     1.5690    -7.8070 h1         1 G75       0.046700
     56 H712        -0.6890     3.0100    -7.7150 h1         1 G75       0.046700
     57 H37          3.8560    -3.3770    -5.0800 h1         1 G75       0.096700
     58 H411         4.0420    -2.9850    -2.6120 hc         1 G75       0.056200
     59 H412         5.5700    -2.1390    -2.8960 hc         1 G75       0.056200
     60 H33          5.9540    -1.4190    -5.7000 hn         1 G75       0.346500
     61 H55          7.5490    -3.3430    -3.6260 ha         1 G75       0.124000
     62 H53          3.8610    -5.3840    -2.9330 ha         1 G75       0.124000
     63 H11          8.7380    -5.5020    -3.6550 ha         1 G75       0.125000
     64 H9           7.4890    -7.6030    -3.3280 ha         1 G75       0.125000
     65 H7           5.0510    -7.5440    -2.9650 ha         1 G75       0.125000
     66 H11C         7.1700    -4.8710    -8.1430 h1         1 G75       0.057200
     67 H12C         8.2260    -5.0570    -6.7370 h1         1 G75       0.057200
     68 H4          10.4780    -4.1470    -6.7340 ha         1 G75       0.133500
     69 H10          7.9270    -3.7040   -10.1310 ha         1 G75       0.133500
     70 H6          12.4160    -3.4710    -8.1010 ha         1 G75       0.131500
     71 H8          12.1080    -2.9080   -10.4820 ha         1 G75       0.130000
     72 H12          9.8650    -3.0260   -11.4970 ha         1 G75       0.131500
@<TRIPOS>BOND
     1     1     2 2
     2     2     3 1
     3     2     6 1
     4     3     4 1
     5     4     5 1
     6     6     7 1
     7     7     8 1
     8     8     9 1
     9     8    16 1
    10     9    10 1
    11    10    11 1
    12    10    15 1
    13    11    12 2
    14    11    13 1
    15    13    14 1
    16    14    15 1
    17    16    17 1
    18    17    18 2
    19    17    19 1
    20    19    20 1
    21    19    27 1
    22    20    21 1
    23    21    22 ar
    24    21    26 ar
    25    22    23 ar
    26    23    24 ar
    27    24    25 ar
    28    25    26 ar
    29    27    28 1
    30    28    29 2
    31    28    30 1
    32    30    31 1
    33    31    32 1
    34    32    33 ar
    35    32    37 ar
    36    33    34 ar
    37    34    35 ar
    38    35    36 ar
    39    36    37 ar
    40     6    38 1
    41     6    39 1
    42     4    40 1
    43     4    41 1
    44     5    42 1
    45     5    43 1
    46     5    44 1
    47     7    45 1
    48     7    46 1
    49     8    47 1
    50     9    48 1
    51     9    49 1
    52    16    50 1
    53    10    51 1
    54    15    52 1
    55    15    53 1
    56    13    54 1
    57    14    55 1
    58    14    56 1
    59    19    57 1
    60    20    58 1
    61    20    59 1
    62    27    60 1
    63    22    61 1
    64    26    62 1
    65    23    63 1
    66    24    64 1
    67    25    65 1
    68    31    66 1
    69    31    67 1
    70    33    68 1
    71    37    69 1
    72    34    70 1
    73    35    71 1
    74    36    72 1
@<TRIPOS>SUBSTRUCTURE
     1 G75         1 TEMP              0 ****  ****    0 ROOT
