@<TRIPOS>MOLECULE
G76
   43    43     1     0     0
SMALL
bcc


@<TRIPOS>ATOM
      1 C01         0.7080    0.0250   -0.6810 c3        1 G76     -0.206000
      2 C02         2.1660    0.0600   -0.3010 c3        1 G76     -0.161000
      3 C03         2.3590   -0.0540    1.1960 c3        1 G76     -0.156000
      4 C04         3.8250   -0.0180    1.5720 c3        1 G76     -0.160000
      5 C05         4.0200   -0.1340    3.0690 c3        1 G76     -0.148000
      6 C06         5.4850   -0.0970    3.4410 c3        1 G76     -0.208000
      7 C07         5.6700   -0.2200    4.9610 c3        1 G76     -0.035000
      8 N08         7.0000   -0.1520    5.5040 n3        1 G76     -0.206000
      9 C09         7.7710    0.9870    5.0770 c2        1 G76     -0.303000
     10 C10         8.9690    0.6200    4.5170 c2        1 G76     -0.025000
     11 N11         9.0250   -0.7770    4.2930 n3        1 G76     -0.292000
     12 C12         7.8900   -1.3590    5.1070 c3        1 G76      0.256000
     13 C13        10.2960   -1.4730    4.4470 c3        1 G76      0.064000
     14 C14        10.8220   -1.7250    5.8100 c2        1 G76     -1.468000
     15 P15        12.4910   -0.3670    5.5510 p3        1 G76      2.586000
     16 O16        13.1960   -0.2980    6.8650 o         1 G76     -1.238333
     17 O17        13.2220   -1.1480    4.4960 o         1 G76     -1.238333
     18 O18        11.8690    0.8990    5.0340 o         1 G76     -1.238333
     19 P19         9.7780   -2.0700    7.0040 p5        1 G76      2.113000
     20 O20         9.8450   -3.5060    7.4180 o         1 G76     -0.913000
     21 O21         9.4810   -1.1080    8.0940 o         1 G76     -0.913000
     22 O22         8.2340   -2.1270    6.1730 os        1 G76     -0.716000
     23 H01         0.5890    0.1100   -1.7880 hc        1 G76      0.060000
     24 H01A        0.2380   -0.9330   -0.3490 hc        1 G76      0.060000
     25 H01B        0.1560    0.8680   -0.2010 hc        1 G76      0.060000
     26 H02         2.6270    1.0170   -0.6630 hc        1 G76      0.076500
     27 H02A        2.7090   -0.7790   -0.8110 hc        1 G76      0.076500
     28 H03         1.8190    0.7850    1.7090 hc        1 G76      0.070000
     29 H03A        1.9010   -1.0120    1.5610 hc        1 G76      0.070000
     30 H04         4.2830    0.9390    1.2080 hc        1 G76      0.078500
     31 H04A        4.3660   -0.8580    1.0600 hc        1 G76      0.078500
     32 H05         3.5630   -1.0920    3.4330 hc        1 G76      0.061500
     33 H05A        3.4780    0.7050    3.5820 hc        1 G76      0.061500
     34 H06         5.9460    0.8630    3.0910 hc        1 G76      0.089000
     35 H06A        6.0300   -0.9330    2.9300 hc        1 G76      0.089000
     36 H07         5.0710    0.6120    5.4350 h1        1 G76      0.049000
     37 H07A        5.2190   -1.1990    5.2900 h1        1 G76      0.049000
     38 H09         7.4310    1.9850    5.3400 h4        1 G76      0.112000
     39 H10         9.8530    1.2390    4.2900 h4        1 G76      0.221000
     40 H12         7.2880   -2.0070    4.3850 h3        1 G76      0.017000
     41 H13        10.1180   -2.4580    3.8990 h1        1 G76      0.048500
     42 H13A       11.0370   -0.9070    3.8030 h1        1 G76      0.048500
     43 H14        11.6030   -2.5130    5.7600 ha        1 G76      0.131000
@<TRIPOS>BOND
     1    1    2 1   
     2    1   23 1   
     3    1   24 1   
     4    1   25 1   
     5    2    3 1   
     6    2   26 1   
     7    2   27 1   
     8    3    4 1   
     9    3   28 1   
    10    3   29 1   
    11    4    5 1   
    12    4   30 1   
    13    4   31 1   
    14    5    6 1   
    15    5   32 1   
    16    5   33 1   
    17    6    7 1   
    18    6   34 1   
    19    6   35 1   
    20    7    8 1   
    21    7   36 1   
    22    7   37 1   
    23    8    9 1   
    24    8   12 1   
    25    9   10 1   
    26    9   38 1   
    27   10   11 1   
    28   10   39 1   
    29   11   12 1   
    30   11   13 1   
    31   12   22 1   
    32   12   40 1   
    33   13   14 1   
    34   13   41 1   
    35   13   42 1   
    36   14   19 1   
    37   14   43 1   
    38   15   16 1   
    39   15   17 1   
    40   15   18 1   
    41   19   20 1   
    42   19   21 1   
    43   19   22 1   
@<TRIPOS>SUBSTRUCTURE
     1 G76         1 TEMP              0 ****  ****    0 ROOT
