@<TRIPOS>MOLECULE
molecule
   43    43     1     0     0
SMALL
bcc


@<TRIPOS>ATOM
      1 C01          0.0000     0.0000     0.0000 c3         1 G76      -0.092100
      2 C02          1.5300     0.0000     0.0000 c3         1 G76      -0.085400
      3 C03          2.0400     0.0000     1.4430 c3         1 G76      -0.082400
      4 C04          3.5690    -0.0010     1.4420 c3         1 G76      -0.081400
      5 C05          4.0790     0.0000     2.8850 c3         1 G76      -0.081400
      6 C06          5.6100    -0.0010     2.8850 c3         1 G76      -0.114400
      7 C07          6.1200     0.0000     4.3280 c3         1 G76       0.074300
      8 N08          7.5840    -0.0000     4.3280 na         1 G76      -0.069100
      9 C09          8.3970     1.1010     4.3290 cc         1 G76      -0.265300
     10 C10          9.6660     0.6500     4.3280 cd         1 G76      -0.026300
     11 N11          9.6290    -0.6910     4.3280 na         1 G76       0.048900
     12 C12          8.3860    -1.0870     4.3340 cc         1 G76       0.009400
     13 C13         10.8000    -1.5720     4.3290 c3         1 G76       0.095300
     14 C14         11.2150    -1.8680     5.7710 c3         1 G76      -0.421100
     15 P15         11.6340    -0.3070     6.6150 p5         1 G76       1.085700
     16 O16         10.3170     0.4590     6.9770 o          1 G76      -0.907500
     17 O17         12.4330    -0.6200     7.9260 o          1 G76      -0.907500
     18 O18         12.5110     0.5800     5.6680 o          1 G76      -0.907500
     19 P19          9.8380    -2.6810     6.6450 p5         1 G76       1.085700
     20 O20          9.2270    -3.7980     5.7330 o          1 G76      -0.907500
     21 O21         10.3690    -3.3240     7.9720 o          1 G76      -0.907500
     22 O22          8.7350    -1.6220     6.9830 o          1 G76      -0.907500
     23 H01         -0.3610     0.8840     0.5110 hc         1 G76       0.025033
     24 H01A        -0.3610     0.0000    -1.0210 hc         1 G76       0.025033
     25 H01B        -0.3610    -0.8850     0.5100 hc         1 G76       0.025033
     26 H02          1.8920     0.8850    -0.5110 hc         1 G76       0.037200
     27 H02A         1.8920    -0.8850    -0.5110 hc         1 G76       0.037200
     28 H03          1.6790     0.8850     1.9530 hc         1 G76       0.039200
     29 H03A         1.6790    -0.8840     1.9540 hc         1 G76       0.039200
     30 H04          3.9310     0.8830     0.9310 hc         1 G76       0.038200
     31 H04A         3.9300    -0.8860     0.9320 hc         1 G76       0.038200
     32 H05          3.7180    -0.8840     3.3960 hc         1 G76       0.040700
     33 H05A         3.7190     0.8850     3.3950 hc         1 G76       0.040700
     34 H06          5.9710     0.8830     2.3740 hc         1 G76       0.043700
     35 H06A         5.9700    -0.8860     2.3750 hc         1 G76       0.043700
     36 H07          5.7580     0.8850     4.8380 h1         1 G76       0.065700
     37 H07A         5.7580    -0.8840     4.8390 h1         1 G76       0.065700
     38 H09          8.0810     2.1370     4.3290 h4         1 G76       0.146000
     39 H10         10.5600     1.2620     4.3260 h4         1 G76       0.235000
     40 H12          8.0510    -2.1180     4.3350 h5         1 G76       0.254000
     41 H13         10.5540    -2.5000     3.8260 h1         1 G76       0.026700
     42 H13A        11.6180    -1.0870     3.8100 h1         1 G76       0.026700
     43 H14         12.0790    -2.5210     5.7720 hc         1 G76       0.072700
@<TRIPOS>BOND
     1     1     2 1
     2     2     3 1
     3     3     4 1
     4     4     5 1
     5     5     6 1
     6     6     7 1
     7     7     8 1
     8     8     9 1
     9     8    12 2
    10     9    10 2
    11    10    11 1
    12    11    12 1
    13    11    13 1
    14    13    14 1
    15    14    15 1
    16    14    19 1
    17    15    16 1
    18    15    17 1
    19    15    18 1
    20    19    20 1
    21    19    21 1
    22    19    22 1
    23     1    23 1
    24     1    24 1
    25     1    25 1
    26     2    26 1
    27     2    27 1
    28     3    28 1
    29     3    29 1
    30     4    30 1
    31     4    31 1
    32     5    32 1
    33     5    33 1
    34     6    34 1
    35     6    35 1
    36     7    36 1
    37     7    37 1
    38     9    38 1
    39    10    39 1
    40    12    40 1
    41    13    41 1
    42    13    42 1
    43    14    43 1
@<TRIPOS>SUBSTRUCTURE
     1 G76         1 TEMP              0 ****  ****    0 ROOT
