@<TRIPOS>MOLECULE
molecule
   39    41     1     0     0
SMALL
bcc


@<TRIPOS>ATOM
      1 O21          0.0000     0.0000     0.0000 o          1 G7A      -0.845800
      2 C20          1.2160     0.0000     0.0000 c          1 G7A       0.916200
      3 O22          1.8920     0.0000     1.1670 o          1 G7A      -0.845800
      4 C17          1.9480    -0.0060    -1.2710 cc         1 G7A      -0.324900
      5 C18          3.3560    -0.0070    -1.4340 cd         1 G7A       0.389200
      6 N19          3.6180    -0.0130    -2.7110 nc         1 G7A      -0.565800
      7 N4           2.4200    -0.0170    -3.4250 na         1 G7A       0.010400
      8 C3           2.2530    -0.0240    -4.8840 c3         1 G7A       0.048000
      9 C13          3.2010     0.9950    -5.5200 c3         1 G7A       0.609900
     10 F57          4.5240     0.6410    -5.2370 f          1 G7A      -0.223300
     11 F56          3.0080     1.0090    -6.9050 f          1 G7A      -0.223300
     12 F58          2.9360     2.2660    -4.9990 f          1 G7A      -0.223300
     13 C5           1.3940    -0.0180    -2.5450 cd         1 G7A       0.102300
     14 N6           0.0580    -0.0200    -2.8820 nu         1 G7A      -0.639600
     15 C1          -0.1280    -0.4500    -4.2750 c3         1 G7A       0.208800
     16 C2           0.7970     0.3570    -5.1910 c3         1 G7A      -0.095400
     17 C7          -1.5620    -0.2230    -4.6830 ca         1 G7A      -0.087300
     18 C12         -2.2140    -1.1590    -5.4630 ca         1 G7A      -0.103000
     19 C11         -3.5280    -0.9510    -5.8370 ca         1 G7A      -0.134500
     20 C10         -4.1910     0.1920    -5.4310 ca         1 G7A      -0.086300
     21 C32         -5.6230     0.4190    -5.8390 c3         1 G7A      -0.036100
     22 C33         -6.5550    -0.1850    -4.7870 c3         1 G7A      -0.087100
     23 C9          -3.5380     1.1290    -4.6510 ca         1 G7A      -0.134500
     24 C8          -2.2250     0.9180    -4.2730 ca         1 G7A      -0.103000
     25 H18          4.0880    -0.0050    -0.6350 h4         1 G7A       0.063100
     26 H3           2.4590    -1.0150    -5.2700 h1         1 G7A       0.077700
     27 H4          -0.4380    -0.6400    -2.2720 hn         1 G7A       0.428800
     28 H1           0.1130    -1.5020    -4.3600 h1         1 G7A       0.032700
     29 H22          0.6540     1.4150    -5.0100 hc         1 G7A       0.072700
     30 H21          0.5730     0.1270    -6.2260 hc         1 G7A       0.072700
     31 H12         -1.6960    -2.0550    -5.7810 ha         1 G7A       0.144500
     32 H11         -4.0400    -1.6850    -6.4480 ha         1 G7A       0.125000
     33 H321        -5.8040    -0.0540    -6.7970 hc         1 G7A       0.040700
     34 H322        -5.8110     1.4830    -5.9210 hc         1 G7A       0.040700
     35 H331        -7.5850    -0.0400    -5.0900 hc         1 G7A       0.034700
     36 H333        -6.3530    -1.2450    -4.6910 hc         1 G7A       0.034700
     37 H332        -6.3880     0.3020    -3.8340 hc         1 G7A       0.034700
     38 H9          -4.0570     2.0240    -4.3310 ha         1 G7A       0.125000
     39 H8          -1.7130     1.6520    -3.6610 ha         1 G7A       0.144500
@<TRIPOS>BOND
     1    11     9 1
     2    10     9 1
     3     9     8 1
     4     9    12 1
     5     8    16 1
     6     8     7 1
     7    16    15 1
     8    24    23 ar
     9    24    17 ar
    10    15    17 1
    11    15    14 1
    12    23    20 ar
    13     7     6 1
    14     7    13 1
    15     6     5 2
    16    17    18 ar
    17    20    21 1
    18    20    19 ar
    19    13    14 1
    20    13     4 2
    21    21    22 1
    22    18    19 ar
    23     5     4 1
    24     4     2 1
    25     2     1 1
    26     2     3 1
    27     5    25 1
    28     8    26 1
    29    14    27 1
    30    15    28 1
    31    16    29 1
    32    16    30 1
    33    18    31 1
    34    19    32 1
    35    21    33 1
    36    21    34 1
    37    22    35 1
    38    22    36 1
    39    22    37 1
    40    23    38 1
    41    24    39 1
@<TRIPOS>SUBSTRUCTURE
     1 G7A         1 TEMP              0 ****  ****    0 ROOT
