@<TRIPOS>MOLECULE
G7A
   39    41     1     0     0
SMALL
bcc


@<TRIPOS>ATOM
      1 O21          0.0000     0.0000     0.0000 o          1 G7A      -0.893800
      2 C20          1.2160     0.0000     0.0000 c          1 G7A       1.015200
      3 O22          1.8920     0.0000     1.1670 o          1 G7A      -0.893800
      4 C17          1.9480    -0.0060    -1.2710 cc         1 G7A      -0.334900
      5 C18          3.3560    -0.0070    -1.4340 cc         1 G7A       0.462200
      6 N19          3.6180    -0.0130    -2.7110 nd         1 G7A      -0.711800
      7 N4           2.4200    -0.0170    -3.4250 na         1 G7A       0.409400
      8 C3           2.2530    -0.0240    -4.8840 c3         1 G7A      -0.069000
      9 C13          3.2010     0.9950    -5.5200 c3         1 G7A       0.570900
     10 F57          4.5240     0.6410    -5.2370 f          1 G7A      -0.205633
     11 F56          3.0080     1.0090    -6.9050 f          1 G7A      -0.205633
     12 F58          2.9360     2.2660    -4.9990 f          1 G7A      -0.205633
     13 C5           1.3940    -0.0180    -2.5450 cd         1 G7A      -0.127700
     14 N6           0.0580    -0.0200    -2.8820 nu         1 G7A      -0.348600
     15 C1          -0.1280    -0.4500    -4.2750 c3         1 G7A       0.155800
     16 C2           0.7970     0.3570    -5.1910 c3         1 G7A      -0.043400
     17 C7          -1.5620    -0.2230    -4.6830 ca         1 G7A      -0.094300
     18 C12         -2.2140    -1.1590    -5.4630 ca         1 G7A      -0.077500
     19 C11         -3.5280    -0.9510    -5.8370 ca         1 G7A      -0.106000
     20 C10         -4.1910     0.1920    -5.4310 ca         1 G7A      -0.096300
     21 C32         -5.6230     0.4190    -5.8390 c3         1 G7A       0.032900
     22 C33         -6.5550    -0.1850    -4.7870 c3         1 G7A       0.007900
     23 C9          -3.5380     1.1290    -4.6510 ca         1 G7A      -0.106000
     24 C8          -2.2250     0.9180    -4.2730 ca         1 G7A      -0.077500
     25 H18          4.0880    -0.0050    -0.6350 h4         1 G7A       0.016100
     26 H3           2.4590    -1.0150    -5.2700 h1         1 G7A       0.053700
     27 H4          -0.4380    -0.6400    -2.2720 hn         1 G7A       0.310800
     28 H1           0.1130    -1.5020    -4.3600 h1         1 G7A       0.013700
     29 H22          0.6540     1.4150    -5.0100 hc         1 G7A       0.042700
     30 H21          0.5730     0.1270    -6.2260 hc         1 G7A       0.042700
     31 H12         -1.6960    -2.0550    -5.7810 ha         1 G7A       0.117500
     32 H11         -4.0400    -1.6850    -6.4480 ha         1 G7A       0.102000
     33 H321        -5.8040    -0.0540    -6.7970 hc         1 G7A       0.009700
     34 H322        -5.8110     1.4830    -5.9210 hc         1 G7A       0.009700
     35 H331        -7.5850    -0.0400    -5.0900 hc         1 G7A       0.001700
     36 H333        -6.3530    -1.2450    -4.6910 hc         1 G7A       0.001700
     37 H332        -6.3880     0.3020    -3.8340 hc         1 G7A       0.001700
     38 H9          -4.0570     2.0240    -4.3310 ha         1 G7A       0.102000
     39 H8          -1.7130     1.6520    -3.6610 ha         1 G7A       0.117500
@<TRIPOS>BOND
     1     1     2 1   
     2     2     3 1   
     3     2     4 1   
     4     4     5 1   
     5     4    13 2   
     6     5     6 2   
     7     5    25 1   
     8     6     7 1   
     9     7     8 1   
    10     7    13 1   
    11     8     9 1   
    12     8    16 1   
    13     8    26 1   
    14     9    10 1   
    15     9    11 1   
    16     9    12 1   
    17    13    14 1   
    18    14    15 1   
    19    14    27 1   
    20    15    16 1   
    21    15    17 1   
    22    15    28 1   
    23    16    29 1   
    24    16    30 1   
    25    17    18 ar  
    26    17    24 ar  
    27    18    19 ar  
    28    18    31 1   
    29    19    20 ar  
    30    19    32 1   
    31    20    21 1   
    32    20    23 ar  
    33    21    22 1   
    34    21    33 1   
    35    21    34 1   
    36    22    35 1   
    37    22    36 1   
    38    22    37 1   
    39    23    24 ar  
    40    23    38 1   
    41    24    39 1   
@<TRIPOS>SUBSTRUCTURE
     1 G7A         1 TEMP              0 ****  ****    0 ROOT
