@<TRIPOS>MOLECULE
molecule
   51    53     1     0     0
SMALL
bcc


@<TRIPOS>ATOM
      1 C4           0.0000     0.0000     0.0000 c          1 G7D       0.622000
      2 C6          -2.5660    -0.0250     2.5960 ca         1 G7D       0.253300
      3 C7          -1.7860    -0.0190     3.7480 ca         1 G7D       0.365900
      4 C9          -4.0680    -0.0600     2.7120 c3         1 G7D       0.202500
      5 N1           1.4600    -0.0020     2.3490 nc         1 G7D      -0.666700
      6 N3           1.3540     0.0000     0.0000 ns         1 G7D      -0.484400
      7 OE1        -14.2850    -2.0210     1.5990 o          1 G7D      -0.776300
      8 CD         -13.6170    -1.3880     0.8160 c          1 G7D       0.887600
      9 OE2        -13.5170    -1.7910    -0.4600 o          1 G7D      -0.776300
     10 CB         -13.1700     0.0860     2.7600 c3         1 G7D      -0.067400
     11 CA         -12.4310     1.3430     3.2260 c3         1 G7D       0.024700
     12 C          -12.8040     1.6440     4.6550 c          1 G7D       0.885600
     13 OXT        -14.0850     1.8820     4.9780 o          1 G7D      -0.757300
     14 O          -11.9500     1.6710     5.5090 o          1 G7D      -0.757300
     15 N          -10.9860     1.1220     3.1340 ns         1 G7D      -0.518900
     16 OAU        -10.5990     3.3010     2.9450 o          1 G7D      -0.642100
     17 CAR         -8.6990     1.9490     2.9020 ca         1 G7D      -0.282600
     18 CAN         -7.8280     3.0400     2.7570 ca         1 G7D       0.235100
     19 CAO         -6.4640     2.8200     2.6720 ca         1 G7D      -0.269000
     20 OAS         -8.3200     4.3030     2.7000 oh         1 G7D      -0.511100
     21 CAQ         -8.1820     0.6510     2.9650 ca         1 G7D      -0.010000
     22 CAP         -6.8360     0.4450     2.8800 ca         1 G7D      -0.261000
     23 CAM         -5.9670     1.5240     2.7300 ca         1 G7D       0.238600
     24 N10         -4.5960     1.3040     2.6450 nu         1 G7D      -0.827600
     25 N5          -2.0020     0.0020     1.4040 nb         1 G7D      -0.560000
     26 C4A         -0.6800    -0.0020     1.3060 ca         1 G7D       0.202500
     27 O4          -0.6310     0.0060    -1.0410 o          1 G7D      -0.554500
     28 C2           2.0440     0.0000     1.1760 cd         1 G7D       0.331800
     29 C8A          0.1190    -0.0090     2.4730 ca         1 G7D       0.517000
     30 N8          -0.4690    -0.0110     3.6680 nb         1 G7D      -0.649000
     31 H1          -2.2640    -0.0230     4.7200 h4         1 G7D       0.051100
     32 H2          -4.3470    -0.5090     3.6580 h1         1 G7D       0.061700
     33 H3          -4.4790    -0.6470     1.8990 h1         1 G7D       0.061700
     34 H4           3.7790     0.0020     2.0600 hn         1 G7D       0.446467
     35 H5           3.7310    -0.8190     0.6480 hn         1 G7D       0.446467
     36 H6           1.8510     0.0020    -0.8680 hn         1 G7D       0.322500
     37 H8         -13.2330     0.7040     0.7030 hc         1 G7D       0.040700
     38 H9         -11.8250    -0.2810     1.1250 hc         1 G7D       0.040700
     39 H10        -14.2350     0.2170     2.9100 hc         1 G7D       0.072700
     40 H11        -12.8270    -0.7670     3.3330 hc         1 G7D       0.072700
     41 H12        -12.7090     2.1790     2.5960 h1         1 G7D       0.088700
     42 H14        -10.6140     0.1970     3.2260 hn         1 G7D       0.316500
     43 H15         -5.7860     3.6570     2.5570 ha         1 G7D       0.135000
     44 H16         -9.2260     4.0890     2.5490 ho         1 G7D       0.472000
     45 H17         -8.8520    -0.1930     3.0810 ha         1 G7D       0.139000
     46 H18         -6.4410    -0.5630     2.9270 ha         1 G7D       0.122000
     47 H19         -3.9720     2.0770     2.5230 hn         1 G7D       0.437800
     48 N2           3.4130    -0.0000     1.1290 nz         1 G7D      -0.695600
     49 H23          3.7300     0.8020     0.6210 hn         1 G7D       0.446467
     50 CAT        -10.1520     2.1710     2.9940 c          1 G7D       0.689700
     51 CG         -12.8900    -0.1500     1.2750 c3         1 G7D      -0.164400
@<TRIPOS>BOND
     1    48    28 1
     2    28     5 2
     3    28     6 1
     4     5    29 1
     5     6     1 1
     6     7     8 1
     7    29    30 ar
     8    29    26 ar
     9     1    26 1
    10     1    27 2
    11    30     3 ar
    12     8    51 1
    13     8     9 1
    14    26    25 ar
    15    51    10 1
    16    14    12 1
    17     3     2 ar
    18    25     2 ar
    19    12    13 1
    20    12    11 1
    21     2     4 1
    22    10    11 1
    23    11    15 1
    24    15    50 1
    25    21    22 ar
    26    21    17 ar
    27    22    23 ar
    28     4    24 1
    29    50    17 1
    30    50    16 2
    31    17    18 ar
    32    23    24 1
    33    23    19 ar
    34    18    19 ar
    35    18    20 1
    36     3    31 1
    37     4    32 1
    38     4    33 1
    39    48    34 1
    40    48    35 1
    41     6    36 1
    42    51    37 1
    43    51    38 1
    44    10    39 1
    45    10    40 1
    46    11    41 1
    47    15    42 1
    48    19    43 1
    49    20    44 1
    50    21    45 1
    51    22    46 1
    52    24    47 1
    53    49    48 1
@<TRIPOS>SUBSTRUCTURE
     1 G7D         1 TEMP              0 ****  ****    0 ROOT
