@<TRIPOS>MOLECULE
G7G
   49    52     1     0     0
SMALL
bcc


@<TRIPOS>ATOM
      1 C1          0.0610   -0.0860   -0.0960 c3        1 G7G      0.339900
      2 C2          1.5950   -0.0220   -0.2590 c3        1 G7G      0.122100
      3 O2          1.9700   -1.0710   -1.1370 oh        1 G7G     -0.601800
      4 C3          2.2630   -0.2200    1.1160 c3        1 G7G      0.099100
      5 O3          3.6460    0.0500    0.9280 oh        1 G7G     -0.627800
      6 C4          1.6430    0.7000    2.1840 c3        1 G7G      0.114100
      7 O4          2.2510    0.3520    3.4140 oh        1 G7G     -0.649800
      8 C5          0.1270    0.4860    2.1990 c3        1 G7G     -0.025900
      9 O5         -0.3630    0.8140    0.9020 os        1 G7G     -0.405600
     10 C6         -0.6580    1.3870    3.1990 c         1 G7G      0.943600
     11 O10        -0.5210    0.4610   -1.2800 os        1 G7G     -0.325900
     12 C11        -2.4190    0.2210   -2.6340 ca        1 G7G     -0.231000
     13 C12        -1.9020    0.4810   -1.3490 ca        1 G7G      0.219100
     14 C13        -2.7500    0.8100   -0.2900 ca        1 G7G     -0.284000
     15 C14        -4.1360    0.8810   -0.5090 ca        1 G7G      0.233100
     16 C15        -4.7010    0.6260   -1.7810 ca        1 G7G     -0.280600
     17 C16        -3.7990    0.3070   -2.8160 ca        1 G7G      0.165100
     18 C17        -6.1410    0.6950   -2.0340 c         1 G7G      0.607900
     19 C18        -6.5280    0.3620   -3.4240 cc        1 G7G     -0.215400
     20 C19        -5.5770    0.0770   -4.3450 cd        1 G7G      0.075100
     21 O20        -4.2280    0.0450   -4.1150 os        1 G7G     -0.226200
     22 C21        -7.9360    0.3390   -3.8080 ca        1 G7G     -0.051800
     23 C22        -8.8380    1.2910   -3.3050 ca        1 G7G     -0.080500
     24 C23       -10.1730    1.2840   -3.6920 ca        1 G7G     -0.189000
     25 C24       -10.6190    0.3050   -4.5940 ca        1 G7G      0.114100
     26 C25        -9.7380   -0.6600   -5.0980 ca        1 G7G     -0.189000
     27 C26        -8.4050   -0.6380   -4.6990 ca        1 G7G     -0.080500
     28 O27        -6.9740    1.0040   -1.1710 o         1 G7G     -0.536100
     29 O28        -4.9830    1.2050    0.5100 oh        1 G7G     -0.471100
     30 O29       -11.9510    0.3520   -4.9490 oh        1 G7G     -0.503100
     31 O6A        -1.8710    1.6010    2.9490 o         1 G7G     -0.819300
     32 O6B        -0.0200    1.7850    4.2120 o         1 G7G     -0.819300
     33 H1         -0.3010   -1.1330    0.0850 h2        1 G7G      0.056700
     34 H2          1.8920    0.9700   -0.6960 h1        1 G7G      0.072700
     35 HO2         2.9360   -1.0730   -1.1500 ho        1 G7G      0.413000
     36 H3          2.1520   -1.2940    1.4370 h1        1 G7G      0.051700
     37 HO3         4.0130    0.2100    1.8080 ho        1 G7G      0.426000
     38 H4          1.8720    1.7750    1.9460 h1        1 G7G      0.059700
     39 HO4         1.7390    0.8070    4.1090 ho        1 G7G      0.466000
     40 H5         -0.1050   -0.5850    2.4460 h1        1 G7G      0.038700
     41 H13        -2.3660    1.0450    0.7290 ha        1 G7G      0.236000
     42 H19        -5.7610   -0.1620   -5.4070 h4        1 G7G      0.167000
     43 H22        -8.4820    2.0410   -2.5770 ha        1 G7G      0.146500
     44 H23       -10.8820    2.0250   -3.2990 ha        1 G7G      0.136500
     45 H25       -10.0970   -1.4300   -5.7940 ha        1 G7G      0.136500
     46 H26        -7.7150   -1.4050   -5.0820 ha        1 G7G      0.146500
     47 HO28       -4.4460    1.3760    1.3090 ho        1 G7G      0.456000
     48 HO29      -12.1240   -0.3970   -5.5370 ho        1 G7G      0.412000
     49 H11        -1.7500   -0.0290   -3.4670 ha        1 G7G      0.161000
@<TRIPOS>BOND
     1    1    2 1   
     2    1    9 1   
     3    1   11 1   
     4    1   33 1   
     5    2    3 1   
     6    2    4 1   
     7    2   34 1   
     8    3   35 1   
     9    4    5 1   
    10    4    6 1   
    11    4   36 1   
    12    5   37 1   
    13    6    7 1   
    14    6    8 1   
    15    6   38 1   
    16    7   39 1   
    17    8    9 1   
    18    8   10 1   
    19    8   40 1   
    20   10   31 1   
    21   10   32 1   
    22   11   13 1   
    23   12   13 ar  
    24   12   17 ar  
    25   12   49 1   
    26   13   14 ar  
    27   14   15 ar  
    28   14   41 1   
    29   15   16 ar  
    30   15   29 1   
    31   16   17 ar  
    32   16   18 1   
    33   17   21 1   
    34   18   19 1   
    35   18   28 2   
    36   19   20 2   
    37   19   22 1   
    38   20   21 1   
    39   20   42 1   
    40   22   23 ar  
    41   22   27 ar  
    42   23   24 ar  
    43   23   43 1   
    44   24   25 ar  
    45   24   44 1   
    46   25   26 ar  
    47   25   30 1   
    48   26   27 ar  
    49   26   45 1   
    50   27   46 1   
    51   29   47 1   
    52   30   48 1   
@<TRIPOS>SUBSTRUCTURE
     1 G7G         1 TEMP              0 ****  ****    0 ROOT
