@<TRIPOS>MOLECULE
molecule
   49    52     1     0     0
SMALL
bcc


@<TRIPOS>ATOM
      1 C1           0.0000     0.0000     0.0000 c3         1 G7G       0.327900
      2 C2           1.5300     0.0000     0.0000 c3         1 G7G       0.116100
      3 O2           2.0090    -1.1670    -0.6720 oh         1 G7G      -0.609800
      4 C3           2.0340     0.0000     1.4470 c3         1 G7G       0.104100
      5 O3           3.4610     0.0720     1.4570 oh         1 G7G      -0.611800
      6 C4           1.4520     1.2130     2.1780 c3         1 G7G       0.127100
      7 O4           1.8550     1.1830     3.5490 oh         1 G7G      -0.567800
      8 C5          -0.0770     1.1650     2.0940 c3         1 G7G       0.036100
      9 O5          -0.4760     1.1380     0.7220 os         1 G7G      -0.398600
     10 C6          -0.6550     2.3880     2.7600 c          1 G7G       0.899600
     11 O10         -0.4770     0.0570    -1.3470 os         1 G7G      -0.308900
     12 C11         -2.3380     0.0080    -2.8140 ca         1 G7G      -0.214000
     13 C12         -1.8180    -0.0410    -1.5300 ca         1 G7G       0.232100
     14 C13         -2.6540    -0.1890    -0.4280 ca         1 G7G      -0.256000
     15 C14         -4.0210    -0.2840    -0.6050 ca         1 G7G       0.232100
     16 C15         -4.5540    -0.2290    -1.8980 ca         1 G7G      -0.291600
     17 C16         -3.7090    -0.0900    -3.0140 ca         1 G7G       0.181100
     18 C17         -6.0060    -0.3070    -2.1360 c          1 G7G       0.596900
     19 C18         -6.4560     0.0520    -3.4950 cc         1 G7G      -0.243400
     20 C19         -5.5180     0.1610    -4.4710 cd         1 G7G       0.088100
     21 O20         -4.2200    -0.0530    -4.2590 os         1 G7G      -0.210200
     22 C21         -7.8910     0.2870    -3.7860 ca         1 G7G      -0.024800
     23 C22         -8.5540     1.3650    -3.2020 ca         1 G7G      -0.097500
     24 C23         -9.8890     1.5810    -3.4760 ca         1 G7G      -0.155000
     25 C24        -10.5710     0.7270    -4.3300 ca         1 G7G       0.097100
     26 C25         -9.9130    -0.3470    -4.9150 ca         1 G7G      -0.155000
     27 C26         -8.5770    -0.5650    -4.6490 ca         1 G7G      -0.097500
     28 O27         -6.7860    -0.6480    -1.2630 o          1 G7G      -0.522100
     29 O28         -4.8410    -0.4330     0.4670 oh         1 G7G      -0.488100
     30 O29        -11.8870     0.9430    -4.5980 oh         1 G7G      -0.525100
     31 O6A         -1.2630     3.2010     2.1060 o          1 G7G      -0.809800
     32 O6B         -0.4930     2.5720     4.0810 o          1 G7G      -0.809800
     33 H1          -0.3590    -0.9040     0.4770 h2         1 G7G       0.037700
     34 H2           1.8900     0.8880    -0.5060 h1         1 G7G       0.066700
     35 HO2          2.6240    -0.9140    -1.3410 ho         1 G7G       0.405000
     36 H3           1.7090    -0.9080     1.9410 h1         1 G7G       0.050700
     37 HO3          3.8100    -0.6840     1.9000 ho         1 G7G       0.402000
     38 H4           1.8100     2.1220     1.7100 h1         1 G7G       0.057700
     39 HO4          2.5440     1.8120     3.6880 ho         1 G7G       0.400000
     40 H5          -0.4370     0.2730     2.5910 h1         1 G7G       0.040700
     41 H13         -2.2310    -0.2510     0.5670 ha         1 G7G       0.179000
     42 H19         -5.8400     0.4330    -5.4680 h4         1 G7G       0.177000
     43 H22         -8.0220     2.0320    -2.5350 ha         1 G7G       0.141000
     44 H23        -10.4050     2.4180    -3.0220 ha         1 G7G       0.136500
     45 H25        -10.4480    -1.0110    -5.5840 ha         1 G7G       0.136500
     46 H26         -8.0640    -1.4030    -5.1050 ha         1 G7G       0.141000
     47 HO28        -4.7320    -1.2970     0.8280 ho         1 G7G       0.426000
     48 HO29       -11.9670     1.4820    -5.3670 ho         1 G7G       0.412000
     49 H11         -1.6750     0.1240    -3.6620 ha         1 G7G       0.153000
@<TRIPOS>BOND
     1     9     1 1
     2     2     1 1
     3     1    11 1
     4     1    33 1
     5     4     2 1
     6     2     3 1
     7     2    34 1
     8     3    35 1
     9     6     4 1
    10     5     4 1
    11     4    36 1
    12     5    37 1
    13     7     6 1
    14     6     8 1
    15     6    38 1
    16     7    39 1
    17    10     8 1
    18     8     9 1
    19     8    40 1
    20    31    10 1
    21    32    10 1
    22    11    13 1
    23    13    12 ar
    24    12    17 ar
    25    12    49 1
    26    13    14 ar
    27    14    15 ar
    28    14    41 1
    29    15    29 1
    30    15    16 ar
    31    17    16 ar
    32    16    18 1
    33    17    21 1
    34    18    28 2
    35    18    19 1
    36    20    19 2
    37    19    22 1
    38    21    20 1
    39    20    42 1
    40    22    27 ar
    41    22    23 ar
    42    23    24 ar
    43    23    43 1
    44    24    25 ar
    45    24    44 1
    46    26    25 ar
    47    25    30 1
    48    27    26 ar
    49    26    45 1
    50    27    46 1
    51    29    47 1
    52    30    48 1
@<TRIPOS>SUBSTRUCTURE
     1 G7G         1 TEMP              0 ****  ****    0 ROOT
