@<TRIPOS>MOLECULE
G7K
   59    63     1     0     0
SMALL
bcc


@<TRIPOS>ATOM
      1 C01          0.0000     0.0000     0.0000 c3         1 G7K       0.251700
      2 O05          1.4280     0.0000     0.0000 os         1 G7K      -0.429100
      3 C06          2.0460     0.0000     1.2090 ca         1 G7K       0.621600
      4 C07          3.4360    -0.0010     1.2730 ca         1 G7K      -0.236300
      5 C09          4.0600    -0.0010     2.4990 ca         1 G7K       0.006000
      6 C11          3.2670    -0.0010     3.6680 ca         1 G7K      -0.052900
      7 N12          3.6600    -0.0010     4.9580 nc         1 G7K      -0.506100
      8 C13          2.7450    -0.0010     5.8640 cd         1 G7K       0.449100
      9 N14          2.9830    -0.0010     7.2260 nu         1 G7K      -0.299900
     10 C16          1.9230     0.1090     8.1170 ca         1 G7K       0.538200
     11 C17          2.1600     0.2250     9.4870 ca         1 G7K      -0.423600
     12 C19          1.0750     0.3320    10.3360 ca         1 G7K       0.419600
     13 N20         -0.1480     0.3220     9.8280 nb         1 G7K      -0.690000
     14 C21         -0.3430     0.2110     8.5220 ca         1 G7K       0.755900
     15 N22         -1.6370     0.2040     8.0310 nu         1 G7K      -0.461900
     16 C24         -1.8730     0.0820     6.5900 c3         1 G7K       0.109500
     17 C26         -3.2260     0.7030     6.2410 c3         1 G7K      -0.033400
     18 C29         -3.4720     0.5750     4.7350 c3         1 G7K      -0.042400
     19 C32         -3.4720    -0.9040     4.3420 c3         1 G7K       0.190100
     20 O34         -3.7020    -1.0220     2.9370 oh         1 G7K      -0.583800
     21 C36         -2.1180    -1.5230     4.6920 c3         1 G7K      -0.042400
     22 C39         -1.8710    -1.3960     6.1970 c3         1 G7K      -0.033400
     23 N42          0.6700     0.1110     7.6760 nb         1 G7K      -0.715000
     24 C43          1.2800     0.4590    11.8230 c3         1 G7K       0.402600
     25 F44          1.9650    -0.6660    12.2970 f          1 G7K      -0.214300
     26 F45          2.0310     1.6080    12.0940 f          1 G7K      -0.214300
     27 C46         -0.0570     0.5600    12.5100 ca         1 G7K      -0.164300
     28 C47         -0.7060    -0.5870    12.9300 ca         1 G7K      -0.028000
     29 C49         -1.9330    -0.4960    13.5590 ca         1 G7K      -0.138500
     30 C51         -2.5130     0.7440    13.7670 ca         1 G7K       0.120900
     31 F52         -3.7130     0.8330    14.3830 f          1 G7K      -0.127900
     32 C53         -1.8620     1.8910    13.3460 ca         1 G7K      -0.138500
     33 C55         -0.6330     1.7980    12.7230 ca         1 G7K      -0.028000
     34 S57          1.1500    -0.0000     5.1250 ss         1 G7K      -0.247500
     35 C58          1.8770    -0.0010     3.5190 ca         1 G7K       0.448600
     36 N59          1.3210     0.0040     2.3110 nb         1 G7K      -0.602000
     37 H1          -0.3610     0.8380     0.5840 h1         1 G7K       0.002700
     38 H2          -0.3610    -0.9250     0.4340 h1         1 G7K       0.002700
     39 H3          -0.3610     0.0860    -1.0180 h1         1 G7K       0.002700
     40 H4           4.0190     0.1180     0.3680 ha         1 G7K       0.127000
     41 H5           5.1410    -0.0020     2.5670 ha         1 G7K       0.118000
     42 H6           3.9180    -0.0900     7.5710 hn         1 G7K       0.299800
     43 H7           3.1710     0.2310     9.8760 ha         1 G7K       0.141000
     44 H8          -2.4100     0.3180     8.6570 hn         1 G7K       0.302800
     45 H9          -1.0900     0.5990     6.0470 h1         1 G7K       0.079700
     46 H10         -3.2240     1.7500     6.5170 hc         1 G7K       0.020950
     47 H11         -4.0100     0.1840     6.7790 hc         1 G7K       0.020950
     48 H12         -4.4320     1.0120     4.4890 hc         1 G7K       0.029450
     49 H13         -2.6860     1.0900     4.1970 hc         1 G7K       0.029450
     50 H14         -4.2540    -1.4200     4.8850 h1         1 G7K      -0.003300
     51 H15         -4.5000    -1.5020     2.7890 ho         1 G7K       0.387000
     52 H16         -2.1190    -2.5710     4.4150 hc         1 G7K       0.029450
     53 H17         -1.3340    -1.0030     4.1540 hc         1 G7K       0.029450
     54 H18         -0.9110    -1.8330     6.4420 hc         1 G7K       0.020950
     55 H19         -2.6570    -1.9130     6.7350 hc         1 G7K       0.020950
     56 H20         -0.2510    -1.5570    12.7670 ha         1 G7K       0.117500
     57 H21         -2.4410    -1.3950    13.8890 ha         1 G7K       0.121500
     58 H22         -2.3140     2.8610    13.5110 ha         1 G7K       0.121500
     59 H23         -0.1240     2.6960    12.3930 ha         1 G7K       0.117500
@<TRIPOS>BOND
     1     1     2 1   
     2     1    37 1   
     3     1    38 1   
     4     1    39 1   
     5     2     3 1   
     6     3     4 ar  
     7     3    36 ar  
     8     4     5 ar  
     9     4    40 1   
    10     5     6 ar  
    11     5    41 1   
    12     6     7 1   
    13     6    35 ar  
    14     7     8 2   
    15     8     9 1   
    16     8    34 1   
    17     9    10 1   
    18     9    42 1   
    19    10    11 ar  
    20    10    23 ar  
    21    11    12 ar  
    22    11    43 1   
    23    12    13 ar  
    24    12    24 1   
    25    13    14 ar  
    26    14    15 1   
    27    14    23 ar  
    28    15    16 1   
    29    15    44 1   
    30    16    17 1   
    31    16    22 1   
    32    16    45 1   
    33    17    18 1   
    34    17    46 1   
    35    17    47 1   
    36    18    19 1   
    37    18    48 1   
    38    18    49 1   
    39    19    20 1   
    40    19    21 1   
    41    19    50 1   
    42    20    51 1   
    43    21    22 1   
    44    21    52 1   
    45    21    53 1   
    46    22    54 1   
    47    22    55 1   
    48    24    25 1   
    49    24    26 1   
    50    24    27 1   
    51    27    28 ar  
    52    27    33 ar  
    53    28    29 ar  
    54    28    56 1   
    55    29    30 ar  
    56    29    57 1   
    57    30    31 1   
    58    30    32 ar  
    59    32    33 ar  
    60    32    58 1   
    61    33    59 1   
    62    34    35 1   
    63    35    36 ar  
@<TRIPOS>SUBSTRUCTURE
     1 G7K         1 TEMP              0 ****  ****    0 ROOT
