@<TRIPOS>MOLECULE
molecule
   59    63     1     0     0
SMALL
bcc


@<TRIPOS>ATOM
      1 C01          0.0000     0.0000     0.0000 c3         1 G7K       0.135700
      2 O05          1.4280     0.0000     0.0000 os         1 G7K      -0.441100
      3 C06          2.0460     0.0000     1.2090 ca         1 G7K       0.665600
      4 C07          3.4360    -0.0010     1.2730 ca         1 G7K      -0.259300
      5 C09          4.0600    -0.0010     2.4990 ca         1 G7K      -0.023000
      6 C11          3.2670    -0.0010     3.6680 ca         1 G7K      -0.008900
      7 N12          3.6600    -0.0010     4.9580 nc         1 G7K      -0.635100
      8 C13          2.7450    -0.0010     5.8640 cd         1 G7K       0.609100
      9 N14          2.9830    -0.0010     7.2260 nu         1 G7K      -0.788900
     10 C16          1.9230     0.1090     8.1170 ca         1 G7K       0.753200
     11 C17          2.1600     0.2250     9.4870 ca         1 G7K      -0.447600
     12 C19          1.0750     0.3320    10.3360 ca         1 G7K       0.475600
     13 N20         -0.1480     0.3220     9.8280 nb         1 G7K      -0.800000
     14 C21         -0.3430     0.2110     8.5220 ca         1 G7K       0.990900
     15 N22         -1.6370     0.2040     8.0310 nu         1 G7K      -0.885900
     16 C24         -1.8730     0.0820     6.5900 c3         1 G7K       0.243500
     17 C26         -3.2260     0.7030     6.2410 c3         1 G7K      -0.094900
     18 C29         -3.4720     0.5750     4.7350 c3         1 G7K      -0.089400
     19 C32         -3.4720    -0.9040     4.3420 c3         1 G7K       0.145100
     20 O34         -3.7020    -1.0220     2.9370 oh         1 G7K      -0.602800
     21 C36         -2.1180    -1.5230     4.6920 c3         1 G7K      -0.089400
     22 C39         -1.8710    -1.3960     6.1970 c3         1 G7K      -0.094900
     23 N42          0.6700     0.1110     7.6760 nb         1 G7K      -0.855000
     24 C43          1.2800     0.4590    11.8230 c3         1 G7K       0.422600
     25 F44          1.9650    -0.6660    12.2970 f          1 G7K      -0.221300
     26 F45          2.0310     1.6080    12.0940 f          1 G7K      -0.221300
     27 C46         -0.0570     0.5600    12.5100 ca         1 G7K      -0.146300
     28 C47         -0.7060    -0.5870    12.9300 ca         1 G7K      -0.060000
     29 C49         -1.9330    -0.4960    13.5590 ca         1 G7K      -0.173000
     30 C51         -2.5130     0.7440    13.7670 ca         1 G7K       0.148900
     31 F52         -3.7130     0.8330    14.3830 f          1 G7K      -0.138900
     32 C53         -1.8620     1.8910    13.3460 ca         1 G7K      -0.173000
     33 C55         -0.6330     1.7980    12.7230 ca         1 G7K      -0.060000
     34 S57          1.1500    -0.0000     5.1250 ss         1 G7K      -0.088500
     35 C58          1.8770    -0.0010     3.5190 ca         1 G7K       0.440600
     36 N59          1.3210     0.0040     2.3110 nb         1 G7K      -0.741000
     37 H1          -0.3610     0.8380     0.5840 h1         1 G7K       0.048367
     38 H2          -0.3610    -0.9250     0.4340 h1         1 G7K       0.048367
     39 H3          -0.3610     0.0860    -1.0180 h1         1 G7K       0.048367
     40 H4           4.0190     0.1180     0.3680 ha         1 G7K       0.155000
     41 H5           5.1410    -0.0020     2.5670 ha         1 G7K       0.154000
     42 H6           3.9180    -0.0900     7.5710 hn         1 G7K       0.481800
     43 H7           3.1710     0.2310     9.8760 ha         1 G7K       0.159000
     44 H8          -2.4100     0.3180     8.6570 hn         1 G7K       0.462800
     45 H9          -1.0900     0.5990     6.0470 h1         1 G7K       0.084700
     46 H10         -3.2240     1.7500     6.5170 hc         1 G7K       0.050950
     47 H11         -4.0100     0.1840     6.7790 hc         1 G7K       0.050950
     48 H12         -4.4320     1.0120     4.4890 hc         1 G7K       0.058950
     49 H13         -2.6860     1.0900     4.1970 hc         1 G7K       0.058950
     50 H14         -4.2540    -1.4200     4.8850 h1         1 G7K       0.028700
     51 H15         -4.5000    -1.5020     2.7890 ho         1 G7K       0.400000
     52 H16         -2.1190    -2.5710     4.4150 hc         1 G7K       0.058950
     53 H17         -1.3340    -1.0030     4.1540 hc         1 G7K       0.058950
     54 H18         -0.9110    -1.8330     6.4420 hc         1 G7K       0.050950
     55 H19         -2.6570    -1.9130     6.7350 hc         1 G7K       0.050950
     56 H20         -0.2510    -1.5570    12.7670 ha         1 G7K       0.148500
     57 H21         -2.4410    -1.3950    13.8890 ha         1 G7K       0.149000
     58 H22         -2.3140     2.8610    13.5110 ha         1 G7K       0.149000
     59 H23         -0.1240     2.6960    12.3930 ha         1 G7K       0.148500
@<TRIPOS>BOND
     1     1     2 1
     2     2     3 1
     3     3     4 ar
     4     3    36 ar
     5    20    19 1
     6     4     5 ar
     7    36    35 ar
     8     5     6 ar
     9    19    18 1
    10    19    21 1
    11    18    17 1
    12    35     6 ar
    13    35    34 1
    14    21    22 1
    15     6     7 1
    16    34     8 1
    17    17    16 1
    18    22    16 1
    19     7     8 2
    20    16    15 1
    21     8     9 1
    22    15    14 1
    23    23    14 ar
    24    23    10 ar
    25     9    10 1
    26    14    13 ar
    27    10    11 ar
    28    13    12 ar
    29    11    12 ar
    30    12    24 1
    31    24    27 1
    32    24    26 1
    33    24    25 1
    34    33    27 ar
    35    33    32 ar
    36    27    28 ar
    37    32    30 ar
    38    28    29 ar
    39    30    29 ar
    40    30    31 1
    41     1    37 1
    42     1    38 1
    43     1    39 1
    44     4    40 1
    45     5    41 1
    46     9    42 1
    47    11    43 1
    48    15    44 1
    49    16    45 1
    50    17    46 1
    51    17    47 1
    52    18    48 1
    53    18    49 1
    54    19    50 1
    55    20    51 1
    56    21    52 1
    57    21    53 1
    58    22    54 1
    59    22    55 1
    60    28    56 1
    61    29    57 1
    62    32    58 1
    63    33    59 1
@<TRIPOS>SUBSTRUCTURE
     1 G7K         1 TEMP              0 ****  ****    0 ROOT
