@<TRIPOS>MOLECULE
molecule
   29    29     1     0     0
SMALL
bcc


@<TRIPOS>ATOM
      1 C1           0.0000     0.0000     0.0000 c3         1 G7P       0.334900
      2 C2           1.5310     0.0000     0.0000 c3         1 G7P       0.108100
      3 C3           2.0340     0.0000     1.4470 c3         1 G7P       0.107100
      4 C4           1.4530     1.2140     2.1780 c3         1 G7P       0.104100
      5 C5          -0.0760     1.1670     2.0940 c3         1 G7P       0.144100
      6 C6          -0.6620     2.4080     2.7700 c3         1 G7P      -0.030400
      7 O1          -0.4760     0.0570    -1.3450 oh         1 G7P      -0.599800
      8 O2           2.0090    -1.1670    -0.6710 oh         1 G7P      -0.616800
      9 O3           3.4610     0.0740     1.4570 oh         1 G7P      -0.617800
     10 O4           1.8560     1.1850     3.5480 oh         1 G7P      -0.590800
     11 O5          -0.4740     1.1380     0.7220 os         1 G7P      -0.400600
     12 C7          -2.1880     2.3000     2.7970 c3         1 G7P      -0.243600
     13 P           -2.8870     3.7790     3.6020 p5         1 G7P       1.050700
     14 O3P         -2.5670     5.0800     2.7090 o          1 G7P      -0.917833
     15 O2P         -4.4810     3.6070     3.7480 o          1 G7P      -0.917833
     16 O1P         -2.2850     3.9410     4.9440 o          1 G7P      -0.917833
     17 H1          -0.3590    -0.9040     0.4770 h2         1 G7P       0.020700
     18 H2           1.8910     0.8870    -0.5060 h1         1 G7P       0.063700
     19 HA          -1.3100    -0.3790    -1.4030 ho         1 G7P       0.408000
     20 H3           1.7100    -0.9080     1.9410 h1         1 G7P       0.047700
     21 HB           2.5030    -0.9110    -1.4320 ho         1 G7P       0.398000
     22 H5          -0.4360     0.2740     2.5910 h1         1 G7P       0.035700
     23 H4           1.8110     2.1230     1.7100 h1         1 G7P       0.057700
     24 HC           3.8130    -0.7010     1.8610 ho         1 G7P       0.395000
     25 HD           2.5640     1.7930     3.6810 ho         1 G7P       0.399000
     26 H61C        -0.3720     3.2920     2.2160 hc         1 G7P       0.066700
     27 H62C        -0.2870     2.4780     3.7840 hc         1 G7P       0.066700
     28 H71C        -2.4780     1.4160     3.3510 hc         1 G7P       0.022700
     29 H72C        -2.5630     2.2300     1.7830 hc         1 G7P       0.022700
@<TRIPOS>BOND
     1     1     2 1
     2     1     7 1
     3     1    11 1
     4     2     3 1
     5     2     8 1
     6    11     5 1
     7     3     4 1
     8     3     9 1
     9     4     5 1
    10     4    10 1
    11     5     6 1
    12     6    12 1
    13    12    13 1
    14    13    16 1
    15    13    15 1
    16    13    14 1
    17     1    17 1
    18     2    18 1
    19     7    19 1
    20     3    20 1
    21     8    21 1
    22     5    22 1
    23     4    23 1
    24     9    24 1
    25    10    25 1
    26     6    26 1
    27     6    27 1
    28    12    28 1
    29    12    29 1
@<TRIPOS>SUBSTRUCTURE
     1 G7P         1 TEMP              0 ****  ****    0 ROOT
