@<TRIPOS>MOLECULE
G7P
   29    29     1     0     0
SMALL
bcc


@<TRIPOS>ATOM
      1 C1          0.1060    0.0610   -0.1270 c3        1 G7P      0.323900
      2 C2          1.6430   -0.0810   -0.1730 c3        1 G7P      0.096100
      3 C3          2.1410   -0.2830    1.2530 c3        1 G7P      0.058100
      4 C4          1.6770    0.9350    2.1540 c3        1 G7P      0.368800
      5 C5          0.1200    0.9590    2.0990 c3        1 G7P      0.093100
      6 C6         -0.4630    2.1600    2.8320 c3        1 G7P     -0.048400
      7 O1         -0.3810    0.4760   -1.3910 oh        1 G7P     -0.656800
      8 O2          1.9820   -1.2070   -0.9770 oh        1 G7P     -0.608800
      9 O3          3.5570   -0.3630    1.2680 oh        1 G7P     -0.641800
     10 O4          2.2000    0.8300    3.3550 o         1 G7P     -0.878500
     11 O5         -0.3450    1.0750    0.7320 os        1 G7P     -0.466600
     12 C7         -1.9240    2.0070    3.1460 c3        1 G7P     -0.346600
     13 P          -2.6960    3.4840    3.3930 p5        1 G7P      1.352600
     14 O3P        -2.0800    4.6370    2.6840 o         1 G7P     -0.886500
     15 O2P        -4.1680    3.2700    3.3660 o         1 G7P     -0.886500
     16 O1P        -2.2880    3.8460    4.9570 oh        1 G7P     -0.801400
     17 H1         -0.3760   -0.9310    0.1010 h2        1 G7P      0.039700
     18 H2          2.1020    0.8410   -0.6230 h1        1 G7P      0.037700
     19 HA         -0.5470    1.4270   -1.3420 ho        1 G7P      0.424000
     20 H3          1.7390   -1.2500    1.6590 h1        1 G7P      0.018700
     21 HB          1.5170   -1.0780   -1.8130 ho        1 G7P      0.377000
     22 H5         -0.2950    0.0040    2.5200 h1        1 G7P      0.014700
     23 H4          2.0180    1.8650    1.5830 h1        1 G7P     -0.076300
     24 HC          3.8190    0.0770    2.0950 ho        1 G7P      0.422000
     25 HD         -1.7180    4.6040    4.9870 ho        1 G7P      0.412000
     26 H61C        0.1520    2.2660    3.7690 hc        1 G7P      0.069700
     27 H62C       -0.3250    3.0890    2.2150 hc        1 G7P      0.069700
     28 H71C       -2.0490    1.3520    4.0430 hc        1 G7P      0.060700
     29 H72C       -2.4250    1.4720    2.3000 hc        1 G7P      0.060700
@<TRIPOS>BOND
     1    1    2 1   
     2    1    7 1   
     3    1   11 1   
     4    1   17 1   
     5    2    3 1   
     6    2    8 1   
     7    2   18 1   
     8    3    4 1   
     9    3    9 1   
    10    3   20 1   
    11    4    5 1   
    12    4   10 1   
    13    4   23 1   
    14    5    6 1   
    15    5   11 1   
    16    5   22 1   
    17    6   12 1   
    18    6   26 1   
    19    6   27 1   
    20    7   19 1   
    21    8   21 1   
    22    9   24 1   
    23   12   13 1   
    24   12   28 1   
    25   12   29 1   
    26   13   14 1   
    27   13   15 1   
    28   13   16 1   
    29   16   25 1   
@<TRIPOS>SUBSTRUCTURE
     1 G7P         1 TEMP              0 ****  ****    0 ROOT
