@<TRIPOS>MOLECULE
G7T
   62    65     1     0     0
SMALL
bcc


@<TRIPOS>ATOM
      1 C10          0.0000     0.0000     0.0000 ca         1 G7T      -0.034300
      2 C13          0.0080    -0.0050     2.3990 ca         1 G7T      -0.080400
      3 C15         -1.8430    -0.7020     3.7190 c          1 G7T       0.558100
      4 C17         -3.9040    -1.4900     4.8490 c3         1 G7T      -0.105400
      5 C20         -6.7300    -2.0830     7.4100 ca         1 G7T       0.041000
      6 C21         -7.9060    -2.7940     7.5160 ca         1 G7T      -0.260300
      7 C22         -8.7210    -2.7120     8.7800 c3         1 G7T       0.652200
      8 C26         -8.3400    -3.5830     6.4610 ca         1 G7T       0.198900
      9 C28         -7.5940    -3.6640     5.2930 ca         1 G7T      -0.153000
     10 C02          3.8480     2.0090    -1.0490 ca         1 G7T       0.616200
     11 N03          4.8150     2.6320    -1.7160 nb         1 G7T      -0.763000
     12 C04          5.1630     2.2460    -2.9310 ca         1 G7T       0.719900
     13 N05          4.5870     1.2400    -3.5500 nb         1 G7T      -0.710000
     14 C06          3.6060     0.5520    -2.9640 ca         1 G7T       0.356800
     15 C07          3.2060     0.9220    -1.6660 ca         1 G7T      -0.566500
     16 C08          2.1370     0.0000    -1.2830 cc         1 G7T       0.485500
     17 C09          1.3950     0.0000     0.0000 ca         1 G7T      -0.113900
     18 C11         -0.7550     0.0010    -1.3040 c3         1 G7T       0.052200
     19 C12         -0.6880    -0.0050     1.1950 ca         1 G7T      -0.101000
     20 N14         -0.6920    -0.0100     3.6080 ns         1 G7T      -0.034100
     21 C16         -2.6550    -0.6170     4.9850 c3         1 G7T      -0.089400
     22 C18         -4.7170    -1.4060     6.1150 c          1 G7T       0.625700
     23 C19         -5.9730    -2.1610     6.2350 ca         1 G7T      -0.209600
     24 F23         -9.9930    -2.2110     8.4830 f          1 G7T      -0.202967
     25 F24         -8.8430    -3.9890     9.3400 f          1 G7T      -0.202967
     26 F25         -8.0860    -1.8620     9.6910 f          1 G7T      -0.202967
     27 C29         -6.4170    -2.9580     5.1750 ca         1 G7T      -0.004000
     28 O30         -4.3350    -0.7140     7.0370 o          1 G7T      -0.560100
     29 O31         -2.2250    -1.3920     2.7980 o          1 G7T      -0.637100
     30 C32          1.3980    -0.0000     2.4010 ca         1 G7T      -0.140000
     31 C33          2.0900     0.0000     1.2090 ca         1 G7T      -0.088000
     32 N34          1.9560    -0.8260    -2.2860 nd         1 G7T      -0.625100
     33 N35          2.8330    -0.5090    -3.3290 na         1 G7T       0.382200
     34 C36          2.9190    -1.2180    -4.6090 c3         1 G7T      -0.032000
     35 C37          3.2590    -2.6870    -4.3560 c3         1 G7T      -0.011600
     36 C38          1.5750    -1.1220    -5.3340 c3         1 G7T      -0.011600
     37 H171        -4.4990    -1.1420     4.0140 hc         1 G7T       0.052700
     38 H1          -3.6090    -2.5180     4.6780 hc         1 G7T       0.052700
     39 H201        -6.3550    -1.5250     8.2600 ha         1 G7T       0.144000
     40 H281        -7.9390    -4.2820     4.4730 ha         1 G7T       0.132000
     41 H011         3.9560     3.1910     0.6480 hn         1 G7T       0.285300
     42 H012         2.7420     1.9550     0.7020 hn         1 G7T       0.285300
     43 H041         5.9560     2.7820    -3.4390 h5         1 G7T      -0.006900
     44 H112        -1.7970     0.2310    -1.1180 hc         1 G7T       0.017367
     45 H111        -0.3320     0.7470    -1.9660 hc         1 G7T       0.017367
     46 H113        -0.6780    -0.9760    -1.7660 hc         1 G7T       0.017367
     47 H121        -1.7710    -0.0050     1.1950 ha         1 G7T       0.140000
     48 H141        -0.3430     0.5070     4.3900 hn         1 G7T       0.169500
     49 H161        -2.0600    -0.9660     5.8200 hc         1 G7T       0.042700
     50 H2          -2.9500     0.4110     5.1570 hc         1 G7T       0.042700
     51 H291        -5.8350    -3.0220     4.2630 ha         1 G7T       0.122000
     52 H321         1.9380    -0.0000     3.3400 ha         1 G7T       0.109000
     53 H331         3.1740     0.0020     1.2110 ha         1 G7T       0.116000
     54 H361         3.6920    -0.7680    -5.2200 h1         1 G7T       0.058700
     55 H373         2.4460    -3.1580    -3.8160 hc         1 G7T       0.015200
     56 H371         4.1670    -2.7510    -3.7700 hc         1 G7T       0.015200
     57 H372         3.4040    -3.1920    -5.3030 hc         1 G7T       0.015200
     58 H381         1.2430    -0.0910    -5.3460 hc         1 G7T       0.015200
     59 H383         1.6880    -1.4760    -6.3520 hc         1 G7T       0.015200
     60 H382         0.8420    -1.7310    -4.8200 hc         1 G7T       0.015200
     61 N01          3.4890     2.4160     0.2210 nv         1 G7T      -0.523500
     62 F27         -9.4940    -4.2760     6.5710 f          1 G7T      -0.112900
@<TRIPOS>BOND
     1     1    17 ar  
     2     1    18 1   
     3     1    19 ar  
     4     2    19 ar  
     5     2    20 1   
     6     2    30 ar  
     7     3    20 1   
     8     3    21 1   
     9     3    29 2   
    10     4    21 1   
    11     4    22 1   
    12     4    37 1   
    13     4    38 1   
    14     5     6 ar  
    15     5    23 ar  
    16     5    39 1   
    17     6     7 1   
    18     6     8 ar  
    19     7    24 1   
    20     7    25 1   
    21     7    26 1   
    22     8     9 ar  
    23     8    62 1   
    24     9    27 ar  
    25     9    40 1   
    26    10    11 ar  
    27    10    15 ar  
    28    10    61 1   
    29    11    12 ar  
    30    12    13 ar  
    31    12    43 1   
    32    13    14 ar  
    33    14    15 ar  
    34    14    33 1   
    35    15    16 1   
    36    16    17 1   
    37    16    32 2   
    38    17    31 ar  
    39    18    44 1   
    40    18    45 1   
    41    18    46 1   
    42    19    47 1   
    43    20    48 1   
    44    21    49 1   
    45    21    50 1   
    46    22    23 1   
    47    22    28 2   
    48    23    27 ar  
    49    27    51 1   
    50    30    31 ar  
    51    30    52 1   
    52    31    53 1   
    53    32    33 1   
    54    33    34 1   
    55    34    35 1   
    56    34    36 1   
    57    34    54 1   
    58    35    55 1   
    59    35    56 1   
    60    35    57 1   
    61    36    58 1   
    62    36    59 1   
    63    36    60 1   
    64    41    61 1   
    65    42    61 1   
@<TRIPOS>SUBSTRUCTURE
     1 G7T         1 TEMP              0 ****  ****    0 ROOT
