@<TRIPOS>MOLECULE
molecule
   62    65     1     0     0
SMALL
bcc


@<TRIPOS>ATOM
      1 C10          0.0000     0.0000     0.0000 ca         1 G7T      -0.032300
      2 C13          0.0080    -0.0050     2.3990 ca         1 G7T       0.067600
      3 C15         -1.8430    -0.7020     3.7190 c          1 G7T       0.657100
      4 C17         -3.9040    -1.4900     4.8490 c3         1 G7T      -0.161400
      5 C20         -6.7300    -2.0830     7.4100 ca         1 G7T      -0.001000
      6 C21         -7.9060    -2.7940     7.5160 ca         1 G7T      -0.239300
      7 C22         -8.7210    -2.7120     8.7800 c3         1 G7T       0.682200
      8 C26         -8.3400    -3.5830     6.4610 ca         1 G7T       0.211900
      9 C28         -7.5940    -3.6640     5.2930 ca         1 G7T      -0.186000
     10 C02          3.8480     2.0090    -1.0490 ca         1 G7T       0.794200
     11 N03          4.8150     2.6320    -1.7160 nb         1 G7T      -0.852000
     12 C04          5.1630     2.2460    -2.9310 ca         1 G7T       0.760900
     13 N05          4.5870     1.2400    -3.5500 nb         1 G7T      -0.815000
     14 C06          3.6060     0.5520    -2.9640 ca         1 G7T       0.538800
     15 C07          3.2060     0.9220    -1.6660 ca         1 G7T      -0.548500
     16 C08          2.1370     0.0000    -1.2830 cc         1 G7T       0.445500
     17 C09          1.3950     0.0000     0.0000 ca         1 G7T      -0.116900
     18 C11         -0.7550     0.0010    -1.3040 c3         1 G7T      -0.049800
     19 C12         -0.6880    -0.0050     1.1950 ca         1 G7T      -0.128000
     20 N14         -0.6920    -0.0100     3.6080 ns         1 G7T      -0.478100
     21 C16         -2.6550    -0.6170     4.9850 c3         1 G7T      -0.148400
     22 C18         -4.7170    -1.4060     6.1150 c          1 G7T       0.577700
     23 C19         -5.9730    -2.1610     6.2350 ca         1 G7T      -0.202600
     24 F23         -9.9930    -2.2110     8.4830 f          1 G7T      -0.216633
     25 F24         -8.8430    -3.9890     9.3400 f          1 G7T      -0.216633
     26 F25         -8.0860    -1.8620     9.6910 f          1 G7T      -0.216633
     27 C29         -6.4170    -2.9580     5.1750 ca         1 G7T      -0.038000
     28 O30         -4.3350    -0.7140     7.0370 o          1 G7T      -0.528100
     29 O31         -2.2250    -1.3920     2.7980 o          1 G7T      -0.596100
     30 C32          1.3980    -0.0000     2.4010 ca         1 G7T      -0.171000
     31 C33          2.0900     0.0000     1.2090 ca         1 G7T      -0.111000
     32 N34          1.9560    -0.8260    -2.2860 nd         1 G7T      -0.495100
     33 N35          2.8330    -0.5090    -3.3290 na         1 G7T      -0.024800
     34 C36          2.9190    -1.2180    -4.6090 c3         1 G7T       0.086000
     35 C37          3.2590    -2.6870    -4.3560 c3         1 G7T      -0.106600
     36 C38          1.5750    -1.1220    -5.3340 c3         1 G7T      -0.106600
     37 H171        -4.4990    -1.1420     4.0140 hc         1 G7T       0.083700
     38 H1          -3.6090    -2.5180     4.6780 hc         1 G7T       0.083700
     39 H201        -6.3550    -1.5250     8.2600 ha         1 G7T       0.179000
     40 H281        -7.9390    -4.2820     4.4730 ha         1 G7T       0.160000
     41 H011         3.9560     3.1910     0.6480 hn         1 G7T       0.448300
     42 H012         2.7420     1.9550     0.7020 hn         1 G7T       0.448300
     43 H041         5.9560     2.7820    -3.4390 h5         1 G7T       0.059100
     44 H112        -1.7970     0.2310    -1.1180 hc         1 G7T       0.052700
     45 H111        -0.3320     0.7470    -1.9660 hc         1 G7T       0.052700
     46 H113        -0.6780    -0.9760    -1.7660 hc         1 G7T       0.052700
     47 H121        -1.7710    -0.0050     1.1950 ha         1 G7T       0.161000
     48 H141        -0.3430     0.5070     4.3900 hn         1 G7T       0.327500
     49 H161        -2.0600    -0.9660     5.8200 hc         1 G7T       0.077700
     50 H2          -2.9500     0.4110     5.1570 hc         1 G7T       0.077700
     51 H291        -5.8350    -3.0220     4.2630 ha         1 G7T       0.153000
     52 H321         1.9380    -0.0000     3.3400 ha         1 G7T       0.135000
     53 H331         3.1740     0.0020     1.2110 ha         1 G7T       0.147000
     54 H361         3.6920    -0.7680    -5.2200 h1         1 G7T       0.087700
     55 H373         2.4460    -3.1580    -3.8160 hc         1 G7T       0.048200
     56 H371         4.1670    -2.7510    -3.7700 hc         1 G7T       0.048200
     57 H372         3.4040    -3.1920    -5.3030 hc         1 G7T       0.048200
     58 H381         1.2430    -0.0910    -5.3460 hc         1 G7T       0.048200
     59 H383         1.6880    -1.4760    -6.3520 hc         1 G7T       0.048200
     60 H382         0.8420    -1.7310    -4.8200 hc         1 G7T       0.048200
     61 N01          3.4890     2.4160     0.2210 nv         1 G7T      -0.996500
     62 F27         -9.4940    -4.2760     6.5710 f          1 G7T      -0.116900
@<TRIPOS>BOND
     1    21     4 1
     2    21     3 1
     3    25     7 1
     4    20     3 1
     5    20     2 1
     6    61    10 1
     7     4    22 1
     8    28    22 2
     9    30     2 ar
    10    30    31 ar
    11     3    29 2
    12    22    23 1
    13     2    19 ar
    14     5    23 ar
    15     5     6 ar
    16     7    26 1
    17     7     6 1
    18     7    24 1
    19    23    27 ar
    20    31    17 ar
    21     6     8 ar
    22    10    11 ar
    23    10    15 ar
    24    11    12 ar
    25    19     1 ar
    26    27     9 ar
    27     8     9 ar
    28     8    62 1
    29    17     1 ar
    30    17    16 1
    31     1    18 1
    32    15    16 1
    33    15    14 ar
    34    12    13 ar
    35    16    32 2
    36    13    14 ar
    37    14    33 1
    38    32    33 1
    39    33    34 1
    40    34    35 1
    41    34    36 1
    42     4    37 1
    43     4    38 1
    44     5    39 1
    45     9    40 1
    46    61    41 1
    47    61    42 1
    48    12    43 1
    49    18    44 1
    50    18    45 1
    51    18    46 1
    52    19    47 1
    53    20    48 1
    54    21    49 1
    55    21    50 1
    56    27    51 1
    57    30    52 1
    58    31    53 1
    59    34    54 1
    60    35    55 1
    61    35    56 1
    62    35    57 1
    63    36    58 1
    64    36    59 1
    65    36    60 1
@<TRIPOS>SUBSTRUCTURE
     1 G7T         1 TEMP              0 ****  ****    0 ROOT
