@<TRIPOS>MOLECULE
molecule
   57    60     1     0     0
SMALL
bcc


@<TRIPOS>ATOM
      1 C13          0.0000     0.0000     0.0000 ca         1 G7W      -0.088000
      2 C15         -2.1790     0.0060     1.2100 cc         1 G7W       0.444500
      3 C20         -5.4060     2.6160     2.0770 c3         1 G7W      -0.107100
      4 C21         -4.3690    -0.4880     0.7170 ca         1 G7W       0.532800
      5 C28          0.0040     0.0110     2.4140 ca         1 G7W      -0.088000
      6 C02          9.8850    -2.7780     6.5350 ca         1 G7W       0.211900
      7 C03          8.5030    -2.8760     6.4810 ca         1 G7W      -0.186000
      8 C04          7.8070    -2.2860     5.4480 ca         1 G7W      -0.037000
      9 C05          8.4980    -1.5890     4.4530 ca         1 G7W      -0.195600
     10 C06          7.7580    -0.9550     3.3440 c          1 G7W       0.573900
     11 C07          6.2890    -1.0560     3.2840 cf         1 G7W      -0.180200
     12 C08          5.6160    -0.4780     2.2740 ce         1 G7W      -0.163200
     13 C09          4.1450    -0.5810     2.2140 c          1 G7W       0.654300
     14 C11          2.0740     0.0000     1.2040 ca         1 G7W       0.063600
     15 C12          1.3780     0.0000     0.0000 ca         1 G7W      -0.155000
     16 C14         -0.6970     0.0060     1.2080 ca         1 G7W      -0.118900
     17 N16         -2.9560     0.7510     1.9610 nd         1 G7W      -0.493100
     18 N17         -4.2980     0.4720     1.6830 na         1 G7W      -0.024800
     19 C18         -5.4470     1.1080     2.3310 c3         1 G7W       0.086000
     20 C19         -5.3930     0.8430     3.8380 c3         1 G7W      -0.107100
     21 N22         -5.3680    -1.1130     0.0950 nb         1 G7W      -0.805000
     22 C23         -5.1240    -2.0220    -0.8220 ca         1 G7W       0.752900
     23 N24         -3.8980    -2.3650    -1.1780 nb         1 G7W      -0.837000
     24 C25         -2.8360    -1.7990    -0.6150 ca         1 G7W       0.790200
     25 N26         -1.5570    -2.1610    -0.9900 nv         1 G7W      -1.017500
     26 C27         -3.0470    -0.8210     0.3710 ca         1 G7W      -0.532500
     27 C29          1.3810     0.0110     2.4100 ca         1 G7W      -0.155000
     28 O30          3.5430    -1.1870     3.0790 o          1 G7W      -0.589100
     29 O31          8.3620    -0.3480     2.4800 o          1 G7W      -0.518100
     30 C32          9.8920    -1.4940     4.5130 ca         1 G7W       0.000000
     31 C33         10.5760    -2.0820     5.5520 ca         1 G7W      -0.238300
     32 C34         12.0780    -1.9810     5.6180 c3         1 G7W       0.682200
     33 F35         12.5440    -1.2470     4.5220 f          1 G7W      -0.216300
     34 F36         12.4500    -1.3360     6.8030 f          1 G7W      -0.216300
     35 F37         12.6340    -3.2640     5.5910 f          1 G7W      -0.216300
     36 H131        -0.5420     0.0000    -0.9380 ha         1 G7W       0.150500
     37 H201        -6.3070     3.0720     2.4680 hc         1 G7W       0.048200
     38 H202        -5.3400     2.8010     1.0110 hc         1 G7W       0.048200
     39 H203        -4.5410     3.0420     2.5710 hc         1 G7W       0.048200
     40 H281        -0.5350     0.0180     3.3540 ha         1 G7W       0.150500
     41 H031         7.9700    -3.4170     7.2530 ha         1 G7W       0.161000
     42 H041         6.7270    -2.3630     5.4080 ha         1 G7W       0.153000
     43 H1           5.7520    -1.5970     4.0540 ha         1 G7W       0.161000
     44 H081         6.1530     0.0620     1.5040 ha         1 G7W       0.155000
     45 H101         3.9670     0.3350     0.4010 hn         1 G7W       0.330500
     46 H121         1.9200    -0.0040    -0.9380 ha         1 G7W       0.150000
     47 H181        -6.3630     0.6980     1.9250 h1         1 G7W       0.087700
     48 H191        -6.3010     1.2090     4.3020 hc         1 G7W       0.048200
     49 H193        -5.3010    -0.2220     4.0140 hc         1 G7W       0.048200
     50 H192        -4.5380     1.3550     4.2640 hc         1 G7W       0.048200
     51 H231        -5.9610    -2.5100    -1.3080 h5         1 G7W       0.060100
     52 H262        -0.8280    -2.1990    -0.3060 hn         1 G7W       0.447300
     53 H261        -1.3710    -2.4300    -1.9360 hn         1 G7W       0.447300
     54 H291         1.9250     0.0150     3.3470 ha         1 G7W       0.150000
     55 H321        10.4320    -0.9520     3.7460 ha         1 G7W       0.179000
     56 N10          3.4710    -0.0010     1.2020 ns         1 G7W      -0.463100
     57 F01         10.5620    -3.3580     7.5500 f          1 G7W      -0.115900
@<TRIPOS>BOND
     1    22    23 ar
     2    22    21 ar
     3    23    24 ar
     4    21     4 ar
     5    24    25 1
     6    24    26 ar
     7     3    19 1
     8     4    26 ar
     9     4    18 1
    10    26     2 1
    11    18    19 1
    12    18    17 1
    13     5    27 ar
    14     5    16 ar
    15    19    20 1
    16     2    17 2
    17     2    16 1
    18    27    14 ar
    19    16     1 ar
    20    14    56 1
    21    14    15 ar
    22     1    15 ar
    23    56    13 1
    24    13    12 1
    25    13    28 2
    26    12    11 2
    27    29    10 2
    28    11    10 1
    29    10     9 1
    30     9     8 ar
    31     9    30 ar
    32     8     7 ar
    33    30    31 ar
    34     7     6 ar
    35    31     6 ar
    36    31    32 1
    37    34    32 1
    38     6    57 1
    39    32    33 1
    40    32    35 1
    41     1    36 1
    42     3    37 1
    43     3    38 1
    44     3    39 1
    45     5    40 1
    46     7    41 1
    47     8    42 1
    48    11    43 1
    49    12    44 1
    50    56    45 1
    51    15    46 1
    52    19    47 1
    53    20    48 1
    54    20    49 1
    55    20    50 1
    56    22    51 1
    57    25    52 1
    58    25    53 1
    59    27    54 1
    60    30    55 1
@<TRIPOS>SUBSTRUCTURE
     1 G7W         1 TEMP              0 ****  ****    0 ROOT
