@<TRIPOS>MOLECULE
G7W
   57    62     1     0     0
SMALL
bcc


@<TRIPOS>ATOM
      1 C13          0.0000     0.0000     0.0000 ca         1 G7W      -0.067500
      2 C15         -2.1790     0.0060     1.2100 c2         1 G7W       0.026000
      3 C20         -5.4060     2.6160     2.0770 c3         1 G7W      -0.129000
      4 C21         -4.3690    -0.4880     0.7170 c2         1 G7W      -0.045000
      5 C28          0.0040     0.0110     2.4140 ca         1 G7W      -0.067500
      6 C02          9.8850    -2.7780     6.5350 ca         1 G7W       0.167000
      7 C03          8.5030    -2.8760     6.4810 ca         1 G7W      -0.154000
      8 C04          7.8070    -2.2860     5.4480 ca         1 G7W       0.005000
      9 C05          8.4980    -1.5890     4.4530 ca         1 G7W      -0.203000
     10 C06          7.7580    -0.9550     3.3440 c3         1 G7W       0.423000
     11 C07          6.2890    -1.0560     3.2840 c2         1 G7W      -0.051000
     12 C08          5.6160    -0.4780     2.2740 c2         1 G7W      -0.085000
     13 C09          4.1450    -0.5810     2.2140 c3         1 G7W       0.315000
     14 C11          2.0740     0.0000     1.2040 ca         1 G7W      -0.080000
     15 C12          1.3780     0.0000     0.0000 ca         1 G7W      -0.123000
     16 C14         -0.6970     0.0060     1.2080 ca         1 G7W      -0.028000
     17 N16         -2.9560     0.7510     1.9610 n2         1 G7W      -0.154000
     18 N17         -4.2980     0.4720     1.6830 na         1 G7W       0.248000
     19 C18         -5.4470     1.1080     2.3310 c3         1 G7W      -0.053000
     20 C19         -5.3930     0.8430     3.8380 c3         1 G7W      -0.129000
     21 N22         -5.3680    -1.1130     0.0950 n2         1 G7W      -0.168000
     22 C23         -5.1240    -2.0220    -0.8220 c2         1 G7W       0.046000
     23 N24         -3.8980    -2.3650    -1.1780 n2         1 G7W      -0.220000
     24 C25         -2.8360    -1.7990    -0.6150 c2         1 G7W       0.092000
     25 N26         -1.5570    -2.1610    -0.9900 nv         1 G7W       0.058000
     26 C27         -3.0470    -0.8210     0.3710 c2         1 G7W      -0.333000
     27 C29          1.3810     0.0110     2.4100 ca         1 G7W      -0.123000
     28 O30          3.5430    -1.1870     3.0790 o          1 G7W      -0.415000
     29 O31          8.3620    -0.3480     2.4800 o          1 G7W      -0.365000
     30 C32          9.8920    -1.4940     4.5130 ca         1 G7W       0.046000
     31 C33         10.5760    -2.0820     5.5520 ca         1 G7W      -0.253000
     32 C34         12.0780    -1.9810     5.6180 c3         1 G7W       0.431000
     33 F35         12.5440    -1.2470     4.5220 f          1 G7W      -0.131333
     34 F36         12.4500    -1.3360     6.8030 f          1 G7W      -0.131333
     35 F37         12.6340    -3.2640     5.5910 f          1 G7W      -0.131333
     36 H131        -0.5420     0.0000    -0.9380 ha         1 G7W       0.120000
     37 H201        -4.5420     3.0420     2.5710 hc         1 G7W       0.054833
     38 H202        -5.3400     2.8010     1.0110 hc         1 G7W       0.054833
     39 H203        -6.3070     3.0720     2.4670 hc         1 G7W       0.054833
     40 H281        -0.5350     0.0180     3.3540 ha         1 G7W       0.120000
     41 H031         7.9700    -3.4170     7.2530 ha         1 G7W       0.133000
     42 H041         6.7270    -2.3630     5.4080 ha         1 G7W       0.125000
     43 H1           6.9690    -1.6500     2.6840 DU         1 G7W       0.024000
     44 H081         5.0770    -1.3550     1.9370 DU         1 G7W       0.029000
     45 H101         3.9670     0.3360     0.4010 hn         1 G7W       0.091000
     46 H121         1.9200    -0.0040    -0.9380 ha         1 G7W       0.127500
     47 H181        -6.3630     0.6980     1.9250 h1         1 G7W       0.097000
     48 H191        -5.3000    -0.2220     4.0140 hc         1 G7W       0.054833
     49 H193        -6.3010     1.2080     4.3020 hc         1 G7W       0.054833
     50 H192        -4.5380     1.3550     4.2640 hc         1 G7W       0.054833
     51 H231        -5.9610    -2.5100    -1.3080 h5         1 G7W       0.132000
     52 H262        -1.3810    -2.4740    -1.9240 hn         1 G7W       0.078000
     53 H261        -0.8270    -2.1950    -0.3060 hn         1 G7W       0.078000
     54 H291         1.9250     0.0150     3.3470 ha         1 G7W       0.127500
     55 H321        10.4320    -0.9520     3.7460 ha         1 G7W       0.146000
     56 N10          3.4710    -0.0010     1.2020 nu         1 G7W       0.104000
     57 F01         10.5620    -3.3580     7.5500 f          1 G7W      -0.077000
@<TRIPOS>BOND
     1     1    15 1   
     2     1    16 1   
     3     1    36 1   
     4     2    16 1   
     5     2    17 1   
     6     2    26 1   
     7     3    19 1   
     8     3    37 1   
     9     3    38 1   
    10     3    39 1   
    11     4    18 1   
    12     4    21 1   
    13     4    26 1   
    14     5    16 1   
    15     5    27 1   
    16     5    40 1   
    17     6     7 1   
    18     6    31 1   
    19     6    57 1   
    20     7     8 1   
    21     7    41 1   
    22     8     9 1   
    23     8    42 1   
    24     9    10 1   
    25     9    30 1   
    26    10    11 1   
    27    10    29 1   
    28    10    43 1   
    29    11    12 1   
    30    11    43 1   
    31    12    13 1   
    32    12    44 1   
    33    13    28 1   
    34    13    44 1   
    35    13    56 1   
    36    14    15 1   
    37    14    27 1   
    38    14    56 1   
    39    15    46 1   
    40    17    18 1   
    41    18    19 1   
    42    19    20 1   
    43    19    47 1   
    44    20    48 1   
    45    20    49 1   
    46    20    50 1   
    47    21    22 1   
    48    22    23 1   
    49    22    51 1   
    50    23    24 1   
    51    24    25 1   
    52    24    26 1   
    53    25    52 1   
    54    25    53 1   
    55    27    54 1   
    56    30    31 1   
    57    30    55 1   
    58    31    32 1   
    59    32    33 1   
    60    32    34 1   
    61    32    35 1   
    62    45    56 1   
@<TRIPOS>SUBSTRUCTURE
     1 G7W         1 TEMP              0 ****  ****    0 ROOT
