@<TRIPOS>MOLECULE
molecule
   71    74     1     0     0
SMALL
bcc


@<TRIPOS>ATOM
      1 CAN          0.0000     0.0000     0.0000 ca         1 G7X      -0.096500
      2 CAO          1.3790     0.0000     0.0000 ca         1 G7X      -0.133000
      3 CAY          2.0750     0.0000     1.1960 ca         1 G7X      -0.044300
      4 CAZ          3.5810     0.0010     1.1890 c3         1 G7X      -0.056800
      5 CAX          1.3920     0.0010     2.4000 ca         1 G7X      -0.133000
      6 CAW          0.0120    -0.0010     2.4140 ca         1 G7X      -0.096500
      7 CAM         -0.6950    -0.0010     1.2100 ca         1 G7X      -0.148600
      8 CAL         -2.1730    -0.0010     1.2180 c          1 G7X       0.681700
      9 OAV         -2.7860     0.6940     0.4310 o          1 G7X      -0.581100
     10 NAK         -2.8420    -0.7730     2.0970 n          1 G7X      -0.468800
     11 CAU         -2.1220    -1.4330     3.1890 c3         1 G7X       0.078000
     12 CBC         -2.2930    -0.6230     4.4750 c3         1 G7X      -0.156400
     13 CBD         -1.3710    -1.1870     5.5590 c3         1 G7X       0.089800
     14 NBE         -1.6200    -0.4870     6.8270 nz         1 G7X      -0.809600
     15 CAJ         -4.2900    -0.9530     1.9610 c3         1 G7X       0.077400
     16 CAB         -4.9780    -0.5570     3.2700 c3         1 G7X      -0.094700
     17 CAA         -4.7030     0.9190     3.5650 c3         1 G7X      -0.099100
     18 CAC         -6.4860    -0.7800     3.1410 c3         1 G7X      -0.099100
     19 CAI         -4.5900    -2.3960     1.6520 cc         1 G7X       0.502900
     20 NAH         -3.8300    -3.3100     2.1750 nd         1 G7X      -0.685100
     21 CAG         -4.0410    -4.6290     1.9410 ca         1 G7X       0.198400
     22 CAF         -3.2240    -5.6130     2.5020 ca         1 G7X      -0.136000
     23 CAE         -3.4800    -6.9410     2.2350 ca         1 G7X       0.069400
     24 ClD         -2.4660    -8.1660     2.9330 cl         1 G7X      -0.088400
     25 CAP         -4.5380    -7.3110     1.4140 ca         1 G7X      -0.141000
     26 CAQ         -5.3500    -6.3650     0.8520 ca         1 G7X      -0.034000
     27 CAR         -5.1140    -5.0150     1.1070 ca         1 G7X      -0.201600
     28 CAS         -5.9550    -3.9560     0.5310 c          1 G7X       0.711100
     29 OBA         -6.8950    -4.2210    -0.1950 o          1 G7X      -0.602500
     30 NAT         -5.6470    -2.6760     0.8440 n          1 G7X      -0.366300
     31 CBB         -6.4550    -1.5820     0.3020 c3         1 G7X       0.124300
     32 CBG         -6.0160    -1.2840    -1.1090 ca         1 G7X      -0.145300
     33 CBH         -6.4760    -2.0630    -2.1550 ca         1 G7X      -0.107500
     34 CBK         -6.0740    -1.7900    -3.4490 ca         1 G7X      -0.127500
     35 CBJ         -5.2120    -0.7380    -3.6970 ca         1 G7X      -0.111000
     36 CBI         -4.7540     0.0420    -2.6510 ca         1 G7X      -0.127500
     37 CBF         -5.1600    -0.2280    -1.3580 ca         1 G7X      -0.107500
     38 HAN         -0.5430     0.0000    -0.9380 ha         1 G7X       0.133000
     39 HAO          1.9190     0.0000    -0.9390 ha         1 G7X       0.139000
     40 HAZ1         3.9380    -0.4810     0.2860 hc         1 G7X       0.054700
     41 HAZ2         3.9470    -0.5370     2.0540 hc         1 G7X       0.054700
     42 HAZ3         3.9420     1.0230     1.2190 hc         1 G7X       0.054700
     43 HAX          1.9420     0.0010     3.3330 ha         1 G7X       0.139000
     44 HAW         -0.5210    -0.0000     3.3570 ha         1 G7X       0.133000
     45 HAU1        -1.0690    -1.4980     2.9400 h1         1 G7X       0.104200
     46 HAU2        -2.5210    -2.4300     3.3340 h1         1 G7X       0.104200
     47 HAJ         -4.6570    -0.3270     1.1570 h1         1 G7X       0.127700
     48 HBC1        -2.0370     0.4120     4.2870 hc         1 G7X       0.077200
     49 HBC2        -3.3220    -0.6860     4.8080 hc         1 G7X       0.077200
     50 HBD1        -0.3380    -1.0450     5.2650 hx         1 G7X       0.113700
     51 HBD2        -1.5680    -2.2450     5.6860 hx         1 G7X       0.113700
     52 HBE1        -2.5430    -0.7000     7.1500 hn         1 G7X       0.456800
     53 HBE2        -1.5360     0.5000     6.6850 hn         1 G7X       0.456800
     54 HAB         -4.5910    -1.1650     4.0790 hc         1 G7X       0.044700
     55 HAA1        -3.7220     1.1850     3.1920 hc         1 G7X       0.047200
     56 HAA2        -5.4530     1.5300     3.0760 hc         1 G7X       0.047200
     57 HAA3        -4.7410     1.0870     4.6340 hc         1 G7X       0.047200
     58 HAC1        -6.9660    -0.5590     4.0870 hc         1 G7X       0.047200
     59 HAC2        -6.8840    -0.1270     2.3730 hc         1 G7X       0.047200
     60 HAC3        -6.6770    -1.8120     2.8720 hc         1 G7X       0.047200
     61 HAF         -2.3220    -5.3310     3.0310 ha         1 G7X       0.146000
     62 HAP         -4.7210    -8.3600     1.2160 ha         1 G7X       0.160000
     63 HAQ         -6.1720    -6.6630     0.2130 ha         1 G7X       0.169000
     64 HBB1        -7.5000    -1.8710     0.3020 h1         1 G7X       0.079200
     65 HBB2        -6.3250    -0.6980     0.9150 h1         1 G7X       0.079200
     66 HBH         -7.1510    -2.8880    -1.9600 ha         1 G7X       0.149000
     67 HBF         -4.8010     0.3830    -0.5380 ha         1 G7X       0.149000
     68 HBK         -6.4330    -2.4010    -4.2680 ha         1 G7X       0.139000
     69 HBJ         -4.8950    -0.5250    -4.7100 ha         1 G7X       0.136000
     70 HBI         -4.0800     0.8680    -2.8460 ha         1 G7X       0.139000
     71 HBE3        -0.9630    -0.7980     7.5140 hn         1 G7X       0.456800
@<TRIPOS>BOND
     1     1     2 ar
     2     1     7 ar
     3     2     3 ar
     4     3     4 1
     5     3     5 ar
     6     5     6 ar
     7     6     7 ar
     8     7     8 1
     9     8     9 2
    10     8    10 1
    11    10    11 1
    12    10    15 1
    13    11    12 1
    14    12    13 1
    15    13    14 1
    16    15    16 1
    17    15    19 1
    18    16    17 1
    19    16    18 1
    20    19    20 2
    21    19    30 1
    22    20    21 1
    23    21    22 ar
    24    21    27 ar
    25    22    23 ar
    26    23    24 1
    27    23    25 ar
    28    25    26 ar
    29    26    27 ar
    30    27    28 1
    31    28    29 2
    32    28    30 1
    33    30    31 1
    34    31    32 1
    35    32    33 ar
    36    32    37 ar
    37    33    34 ar
    38    34    35 ar
    39    35    36 ar
    40    36    37 ar
    41     1    38 1
    42     2    39 1
    43     4    40 1
    44     4    41 1
    45     4    42 1
    46     5    43 1
    47     6    44 1
    48    11    45 1
    49    11    46 1
    50    15    47 1
    51    12    48 1
    52    12    49 1
    53    13    50 1
    54    13    51 1
    55    14    52 1
    56    14    53 1
    57    16    54 1
    58    17    55 1
    59    17    56 1
    60    17    57 1
    61    18    58 1
    62    18    59 1
    63    18    60 1
    64    22    61 1
    65    25    62 1
    66    26    63 1
    67    31    64 1
    68    31    65 1
    69    33    66 1
    70    37    67 1
    71    34    68 1
    72    35    69 1
    73    36    70 1
    74    71    14 1
@<TRIPOS>SUBSTRUCTURE
     1 G7X         1 TEMP              0 ****  ****    0 ROOT
