@<TRIPOS>MOLECULE
G7X
   71    74     1     0     0
SMALL
bcc


@<TRIPOS>ATOM
      1 CAN          0.0000     0.0000     0.0000 ca         1 G7X      -0.078000
      2 CAO          1.3790     0.0000     0.0000 ca         1 G7X      -0.103000
      3 CAY          2.0750     0.0000     1.1960 ca         1 G7X      -0.050300
      4 CAZ          3.5810     0.0010     1.1890 c3         1 G7X       0.056200
      5 CAX          1.3920     0.0010     2.4000 ca         1 G7X      -0.103000
      6 CAW          0.0120    -0.0010     2.4140 ca         1 G7X      -0.078000
      7 CAM         -0.6950    -0.0010     1.2100 ca         1 G7X      -0.155600
      8 CAL         -2.1730    -0.0010     1.2180 c          1 G7X       0.613700
      9 OAV         -2.7860     0.6940     0.4310 o          1 G7X      -0.622100
     10 NAK         -2.8420    -0.7730     2.0970 n          1 G7X      -0.112800
     11 CAU         -2.1220    -1.4330     3.1890 c3         1 G7X      -0.037000
     12 CBC         -2.2930    -0.6230     4.4750 c3         1 G7X      -0.105400
     13 CBD         -1.3710    -1.1870     5.5590 c3         1 G7X      -0.051200
     14 NBE         -1.6200    -0.4870     6.8270 nz         1 G7X       0.086400
     15 CAJ         -4.2900    -0.9530     1.9610 c3         1 G7X      -0.036600
     16 CAB         -4.9780    -0.5570     3.2700 c3         1 G7X      -0.075700
     17 CAA         -4.7030     0.9190     3.5650 c3         1 G7X      -0.014100
     18 CAC         -6.4860    -0.7800     3.1410 c3         1 G7X      -0.014100
     19 CAI         -4.5900    -2.3960     1.6520 cc         1 G7X       0.306900
     20 NAH         -3.8300    -3.3100     2.1750 nd         1 G7X      -0.576100
     21 CAG         -4.0410    -4.6290     1.9410 ca         1 G7X       0.153400
     22 CAF         -3.2240    -5.6130     2.5020 ca         1 G7X      -0.117000
     23 CAE         -3.4800    -6.9410     2.2350 ca         1 G7X       0.003400
     24 ClD         -2.4660    -8.1660     2.9330 cl         1 G7X      -0.004400
     25 CAP         -4.5380    -7.3110     1.4140 ca         1 G7X      -0.117000
     26 CAQ         -5.3500    -6.3650     0.8520 ca         1 G7X       0.006000
     27 CAR         -5.1140    -5.0150     1.1070 ca         1 G7X      -0.210600
     28 CAS         -5.9550    -3.9560     0.5310 c          1 G7X       0.629100
     29 OBA         -6.8950    -4.2210    -0.1950 o          1 G7X      -0.638500
     30 NAT         -5.6470    -2.6760     0.8440 n          1 G7X       0.053700
     31 CBB         -6.4550    -1.5820     0.3020 c3         1 G7X       0.046300
     32 CBG         -6.0160    -1.2840    -1.1090 ca         1 G7X      -0.156300
     33 CBH         -6.4760    -2.0630    -2.1550 ca         1 G7X      -0.090500
     34 CBK         -6.0740    -1.7900    -3.4490 ca         1 G7X      -0.096000
     35 CBJ         -5.2120    -0.7380    -3.6970 ca         1 G7X      -0.083000
     36 CBI         -4.7540     0.0420    -2.6510 ca         1 G7X      -0.096000
     37 CBF         -5.1600    -0.2280    -1.3580 ca         1 G7X      -0.090500
     38 HAN         -0.5430     0.0000    -0.9380 ha         1 G7X       0.111500
     39 HAO          1.9190     0.0000    -0.9390 ha         1 G7X       0.110500
     40 HAZ1         3.9380    -0.4810     0.2860 hc         1 G7X       0.016367
     41 HAZ2         3.9470    -0.5370     2.0540 hc         1 G7X       0.016367
     42 HAZ3         3.9420     1.0230     1.2190 hc         1 G7X       0.016367
     43 HAX          1.9420     0.0010     3.3330 ha         1 G7X       0.110500
     44 HAW         -0.5210    -0.0000     3.3570 ha         1 G7X       0.111500
     45 HAU1        -1.0690    -1.4980     2.9400 h1         1 G7X       0.089700
     46 HAU2        -2.5210    -2.4300     3.3340 h1         1 G7X       0.089700
     47 HAJ         -4.6570    -0.3270     1.1570 h1         1 G7X       0.110700
     48 HBC1        -2.0370     0.4120     4.2870 hc         1 G7X       0.057200
     49 HBC2        -3.3220    -0.6860     4.8080 hc         1 G7X       0.057200
     50 HBD1        -0.3380    -1.0450     5.2650 hx         1 G7X       0.088200
     51 HBD2        -1.5680    -2.2450     5.6860 hx         1 G7X       0.088200
     52 HBE1        -2.5430    -0.7000     7.1500 hn         1 G7X       0.222800
     53 HBE2        -1.5360     0.5000     6.6850 hn         1 G7X       0.222800
     54 HAB         -4.5910    -1.1650     4.0790 hc         1 G7X       0.027700
     55 HAA1        -3.7220     1.1850     3.1920 hc         1 G7X       0.016867
     56 HAA2        -5.4530     1.5300     3.0760 hc         1 G7X       0.016867
     57 HAA3        -4.7410     1.0870     4.6340 hc         1 G7X       0.016867
     58 HAC1        -6.9660    -0.5590     4.0870 hc         1 G7X       0.016867
     59 HAC2        -6.8840    -0.1270     2.3730 hc         1 G7X       0.016867
     60 HAC3        -6.6770    -1.8120     2.8720 hc         1 G7X       0.016867
     61 HAF         -2.3220    -5.3310     3.0310 ha         1 G7X       0.117000
     62 HAP         -4.7210    -8.3600     1.2160 ha         1 G7X       0.127000
     63 HAQ         -6.1720    -6.6630     0.2130 ha         1 G7X       0.134000
     64 HBB1        -7.5000    -1.8710     0.3020 h1         1 G7X       0.059700
     65 HBB2        -6.3250    -0.6980     0.9150 h1         1 G7X       0.059700
     66 HBH         -7.1510    -2.8880    -1.9600 ha         1 G7X       0.130000
     67 HBF         -4.8010     0.3830    -0.5380 ha         1 G7X       0.130000
     68 HBK         -6.4330    -2.4010    -4.2680 ha         1 G7X       0.111000
     69 HBJ         -4.8950    -0.5250    -4.7100 ha         1 G7X       0.107000
     70 HBI         -4.0800     0.8680    -2.8460 ha         1 G7X       0.111000
     71 HBE3        -0.9630    -0.7980     7.5140 hn         1 G7X       0.222800
@<TRIPOS>BOND
     1     1     2 ar  
     2     1     7 ar  
     3     1    38 1   
     4     2     3 ar  
     5     2    39 1   
     6     3     4 1   
     7     3     5 ar  
     8     4    40 1   
     9     4    41 1   
    10     4    42 1   
    11     5     6 ar  
    12     5    43 1   
    13     6     7 ar  
    14     6    44 1   
    15     7     8 1   
    16     8     9 2   
    17     8    10 1   
    18    10    11 1   
    19    10    15 1   
    20    11    12 1   
    21    11    45 1   
    22    11    46 1   
    23    12    13 1   
    24    12    48 1   
    25    12    49 1   
    26    13    14 1   
    27    13    50 1   
    28    13    51 1   
    29    14    52 1   
    30    14    53 1   
    31    14    71 1   
    32    15    16 1   
    33    15    19 1   
    34    15    47 1   
    35    16    17 1   
    36    16    18 1   
    37    16    54 1   
    38    17    55 1   
    39    17    56 1   
    40    17    57 1   
    41    18    58 1   
    42    18    59 1   
    43    18    60 1   
    44    19    20 2   
    45    19    30 1   
    46    20    21 1   
    47    21    22 ar  
    48    21    27 ar  
    49    22    23 ar  
    50    22    61 1   
    51    23    24 1   
    52    23    25 ar  
    53    25    26 ar  
    54    25    62 1   
    55    26    27 ar  
    56    26    63 1   
    57    27    28 1   
    58    28    29 2   
    59    28    30 1   
    60    30    31 1   
    61    31    32 1   
    62    31    64 1   
    63    31    65 1   
    64    32    33 ar  
    65    32    37 ar  
    66    33    34 ar  
    67    33    66 1   
    68    34    35 ar  
    69    34    68 1   
    70    35    36 ar  
    71    35    69 1   
    72    36    37 ar  
    73    36    70 1   
    74    37    67 1   
@<TRIPOS>SUBSTRUCTURE
     1 G7X         1 TEMP              0 ****  ****    0 ROOT
