@<TRIPOS>MOLECULE
molecule
   76    79     1     0     0
SMALL
bcc


@<TRIPOS>ATOM
      1 O1           0.0000     0.0000     0.0000 o          1 G80      -0.525100
      2 O2           4.1940     1.6240     4.8140 oh         1 G80      -0.598800
      3 C1           3.3330     0.0000     1.1970 c3         1 G80      -0.084400
      4 C2           2.3910     0.0000     0.0000 c3         1 G80      -0.184400
      5 C3           1.0350    -0.0530     0.6530 c          1 G80       0.572100
      6 C4           1.1320    -0.1140     2.1840 c3         1 G80      -0.150700
      7 C5          -0.0020    -0.8550     2.9640 c3         1 G80      -0.009000
      8 C6           0.0540    -2.3820     2.5880 c3         1 G80      -0.061700
      9 C7           1.4480    -2.9860     2.8340 c3         1 G80      -0.078400
     10 C8           2.5430    -2.2330     2.0870 c3         1 G80      -0.070400
     11 C9           2.5690    -0.6940     2.3580 c3         1 G80      -0.050000
     12 C10          3.2650    -0.3810     3.7450 c3         1 G80      -0.067700
     13 C11          2.9700     1.0560     4.3120 c3         1 G80       0.167100
     14 C12          1.8820     1.1550     5.4420 c3         1 G80      -0.024800
     15 C13          0.4350     0.8120     4.9720 c3         1 G80      -0.091400
     16 C14          0.1660    -0.6420     4.5200 c3         1 G80       0.152100
     17 C15         -1.3830    -0.2770     2.5420 c3         1 G80      -0.085100
     18 C16         -0.9970    -3.2730     3.2620 c3         1 G80      -0.083100
     19 C17          4.7860    -0.6670     3.6980 c3         1 G80      -0.070100
     20 C18          1.8310     2.6120     5.9760 c3         1 G80      -0.085100
     21 C19          2.2520     0.2910     6.6300 c2         1 G80      -0.160200
     22 C20          2.0290     0.6340     7.9030 c2         1 G80      -0.194000
     23 O3          -1.0260    -1.0720     5.1970 os         1 G80      -0.432900
     24 C21         -0.9900    -0.9850     6.5590 c          1 G80       0.650100
     25 O4           0.0110    -1.0900     7.2540 o          1 G80      -0.482000
     26 C22         -2.3960    -0.7400     7.0490 c3         1 G80      -0.070300
     27 S1          -2.4520    -0.6140     8.8510 ss         1 G80      -0.294200
     28 C23         -4.2510    -0.3280     9.0480 c3         1 G80       0.025400
     29 C24         -4.6890     0.9460     8.3190 c3         1 G80      -0.066900
     30 C25         -4.2760     2.2250     9.0510 c3         1 G80       0.161300
     31 C27         -4.2210     1.0790    11.1810 c3         1 G80       0.161300
     32 C26         -4.6290    -0.2460    10.5310 c3         1 G80      -0.066900
     33 N1          -4.7460     2.2240    10.4350 n7         1 G80      -0.821200
     34 H11A         4.2320    -0.5570     0.9600 hc         1 G80       0.050700
     35 H12          3.5810     1.0180     1.4730 hc         1 G80       0.050700
     36 H21          2.5030     0.9110    -0.5760 hc         1 G80       0.078200
     37 H22          2.5540    -0.8760    -0.6160 hc         1 G80       0.078200
     38 H4           1.1490     0.9070     2.5460 hc         1 G80       0.075700
     39 H6          -0.1240    -2.4400     1.5210 hc         1 G80       0.050700
     40 H71          1.6620    -2.9520     3.8950 hc         1 G80       0.046700
     41 H72          1.4450    -4.0180     2.5040 hc         1 G80       0.046700
     42 H81          2.4010    -2.3910     1.0240 hc         1 G80       0.044700
     43 H82          3.5010    -2.6480     2.3770 hc         1 G80       0.044700
     44 H10          2.8410    -1.0780     4.4580 hc         1 G80       0.058700
     45 H11          2.6340     1.6680     3.4830 h1         1 G80       0.022700
     46 H131         0.1920     1.4660     4.1430 hc         1 G80       0.050200
     47 H132        -0.2410     1.0350     5.7900 hc         1 G80       0.050200
     48 H14          0.9930    -1.2560     4.8560 h1         1 G80       0.066700
     49 H151        -2.1140    -0.4890     3.3130 hc         1 G80       0.046033
     50 H152        -1.6970    -0.7330     1.6110 hc         1 G80       0.046033
     51 H153        -1.3010     0.7950     2.4080 hc         1 G80       0.046033
     52 H161        -1.8520    -2.6710     3.5460 hc         1 G80       0.039367
     53 H162        -0.5690    -3.7320     4.1450 hc         1 G80       0.039367
     54 H163        -1.3120    -4.0450     2.5710 hc         1 G80       0.039367
     55 H171         4.9730    -1.5220     3.0600 hc         1 G80       0.039367
     56 H172         5.1450    -0.8780     4.6980 hc         1 G80       0.039367
     57 H173         5.3040     0.1990     3.3030 hc         1 G80       0.039367
     58 H181         2.7140     2.8110     6.5700 hc         1 G80       0.039367
     59 H182         0.9470     2.7410     6.5890 hc         1 G80       0.039367
     60 H183         1.7940     3.3010     5.1400 hc         1 G80       0.039367
     61 H19          2.7260    -0.6620     6.4280 ha         1 G80       0.122000
     62 H201         2.3210    -0.0360     8.7030 ha         1 G80       0.114000
     63 H202         1.5560     1.5810     8.1350 ha         1 G80       0.114000
     64 H221        -3.0290    -1.5590     6.7310 h1         1 G80       0.088200
     65 H222        -2.7650     0.1820     6.6170 h1         1 G80       0.088200
     66 H23         -4.7810    -1.1660     8.6110 h1         1 G80       0.064700
     67 H241        -4.2420     0.9520     7.3320 hc         1 G80       0.053700
     68 H242        -5.7670     0.9350     8.2190 hc         1 G80       0.053700
     69 H251        -3.1960     2.3030     9.0450 h1         1 G80       0.037700
     70 H252        -4.7000     3.0790     8.5360 h1         1 G80       0.037700
     71 H271        -3.1400     1.1400    11.2060 h1         1 G80       0.037700
     72 H272        -4.6060     1.1090    12.1920 h1         1 G80       0.037700
     73 H261        -5.7030    -0.3600    10.6220 hc         1 G80       0.053700
     74 H262        -4.1410    -1.0560    11.0600 hc         1 G80       0.053700
     75 HN1         -4.4630     3.0720    10.8850 hn         1 G80       0.358800
     76 HO2          4.4020     2.4040     4.3270 ho         1 G80       0.397000
@<TRIPOS>BOND
     1     1     5 2
     2     2    13 1
     3     2    76 1
     4     3    11 1
     5     3     4 1
     6     3    34 1
     7     3    35 1
     8     4     5 1
     9     4    36 1
    10     4    37 1
    11     5     6 1
    12     6    11 1
    13     6     7 1
    14     6    38 1
    15     7     8 1
    16     7    16 1
    17     7    17 1
    18     8     9 1
    19     8    18 1
    20     8    39 1
    21     9    10 1
    22     9    40 1
    23     9    41 1
    24    10    11 1
    25    10    42 1
    26    10    43 1
    27    11    12 1
    28    12    19 1
    29    12    13 1
    30    12    44 1
    31    13    14 1
    32    13    45 1
    33    14    21 1
    34    14    15 1
    35    14    20 1
    36    15    16 1
    37    15    46 1
    38    15    47 1
    39    16    23 1
    40    16    48 1
    41    17    49 1
    42    17    50 1
    43    17    51 1
    44    18    52 1
    45    18    53 1
    46    18    54 1
    47    19    55 1
    48    19    56 1
    49    19    57 1
    50    20    58 1
    51    20    59 1
    52    20    60 1
    53    21    22 2
    54    21    61 1
    55    22    62 1
    56    22    63 1
    57    23    24 1
    58    24    25 2
    59    24    26 1
    60    26    27 1
    61    26    64 1
    62    26    65 1
    63    27    28 1
    64    28    29 1
    65    28    32 1
    66    28    66 1
    67    29    30 1
    68    29    67 1
    69    29    68 1
    70    30    33 1
    71    30    69 1
    72    30    70 1
    73    31    32 1
    74    31    33 1
    75    31    71 1
    76    31    72 1
    77    32    73 1
    78    32    74 1
    79    33    75 1
@<TRIPOS>SUBSTRUCTURE
     1 G80         1 TEMP              0 ****  ****    0 ROOT
