@<TRIPOS>MOLECULE
G81
   71    72     1     0     0
SMALL
bcc


@<TRIPOS>ATOM
      1 O35          0.0000     0.0000     0.0000 o          1 G81      -0.664000
      2 C31          1.2150     0.0000     0.0000 c          1 G81       0.683100
      3 O1           1.8880     0.0000     1.1650 os         1 G81      -0.414900
      4 C1           1.0990     0.0000     2.3840 c3         1 G81       0.197800
      5 C2           0.2160    -1.2490     2.4190 c3         1 G81      -0.036767
      6 C4           2.0320     0.0010     3.5960 c3         1 G81      -0.036767
      7 C6           0.2160     1.2500     2.4180 c3         1 G81      -0.036767
      8 N33          1.8890    -0.0070    -1.1680 ns         1 G81      -0.158900
      9 C37          1.1550    -0.0130    -2.4360 c3         1 G81      -0.042300
     10 C41          0.7910     1.4220    -2.8230 c3         1 G81       0.019900
     11 C51         -0.1710     1.9860    -1.8090 ca         1 G81      -0.079300
     12 C53          0.3090     2.6530    -0.6980 ca         1 G81      -0.089000
     13 C7          -0.5730     3.1700     0.2330 ca         1 G81      -0.093000
     14 C9          -1.9360     3.0220     0.0510 ca         1 G81      -0.099000
     15 C11         -2.4150     2.3560    -1.0620 ca         1 G81      -0.093000
     16 C55         -1.5340     1.8420    -1.9940 ca         1 G81      -0.089000
     17 C39          2.0190    -0.6190    -3.5130 c          1 G81       0.559100
     18 O47          3.1360    -1.0080    -3.2460 o          1 G81      -0.630100
     19 N49          1.5490    -0.7300    -4.7710 ns         1 G81      -0.186900
     20 C57          2.4240    -1.2170    -5.8400 c3         1 G81      -0.012300
     21 C59          2.3270    -2.7430    -5.9220 c3         1 G81      -0.018400
     22 C61          3.3140    -3.2600    -6.9700 c3         1 G81      -0.143700
     23 C73          3.1230    -4.7780    -7.1910 c3         1 G81      -0.029400
     24 C71          4.5770    -5.2500    -7.4110 c3         1 G81       0.041000
     25 N69          5.4170    -4.2650    -6.7220 ns         1 G81      -0.201900
     26 C65          4.7360    -3.1340    -6.4670 c          1 G81       0.622500
     27 O66          5.1940    -2.1560    -5.9150 o          1 G81      -0.660500
     28 C63          1.9900    -0.6070    -7.1730 c3         1 G81      -0.035400
     29 C82          2.2050     0.9080    -7.1340 c3         1 G81      -0.074400
     30 C84          1.7770     1.5100    -8.4480 c          1 G81       0.694100
     31 O88          1.3460     0.8010    -9.3250 o          1 G81      -0.593000
     32 O86          1.8760     2.8340    -8.6430 os         1 G81      -0.414900
     33 C3           1.4460     3.3450    -9.9320 c3         1 G81       0.226400
     34 C5           1.6310     4.8630    -9.9680 c3         1 G81      -0.003100
     35 H33          2.8890    -0.0500    -1.1690 hn         1 G81       0.201500
     36 H21C         0.7360    -2.0720     1.9440 hc         1 G81       0.020589
     37 H22C        -0.7090    -1.0530     1.8900 hc         1 G81       0.020589
     38 H23C        -0.0040    -1.5070     3.4480 hc         1 G81       0.020589
     39 H41C         1.4430     0.0210     4.5050 hc         1 G81       0.020589
     40 H42C         2.6430    -0.8930     3.5820 hc         1 G81       0.020589
     41 H43C         2.6700     0.8750     3.5610 hc         1 G81       0.020589
     42 H61C        -0.1190     1.4270     3.4330 hc         1 G81       0.020589
     43 H62C        -0.6440     1.1030     1.7750 hc         1 G81       0.020589
     44 H63C         0.7840     2.1040     2.0710 hc         1 G81       0.020589
     45 H37          0.2500    -0.5990    -2.3270 h1         1 G81       0.068700
     46 H411         0.3270     1.4260    -3.8020 hc         1 G81       0.023200
     47 H412         1.6880     2.0280    -2.8460 hc         1 G81       0.023200
     48 H53          1.3760     2.7690    -0.5550 ha         1 G81       0.100000
     49 H55         -1.9100     1.3210    -2.8650 ha         1 G81       0.100000
     50 H7          -0.1960     3.6920     1.1050 ha         1 G81       0.100500
     51 H9          -2.6270     3.4250     0.7800 ha         1 G81       0.099000
     52 H11         -3.4820     2.2410    -1.2060 ha         1 G81       0.100500
     53 H49          0.5890    -0.5220    -4.9660 hn         1 G81       0.175500
     54 H57          3.4470    -0.9310    -5.6280 h1         1 G81       0.105700
     55 H591         2.5670    -3.1720    -4.9570 hc         1 G81       0.026700
     56 H592         1.3200    -3.0260    -6.2030 hc         1 G81       0.026700
     57 H631         0.9410    -0.8190    -7.3430 hc         1 G81       0.037200
     58 H632         2.5790    -1.0350    -7.9750 hc         1 G81       0.037200
     59 H61          3.1970    -2.7260    -7.9050 hc         1 G81       0.061700
     60 H731         2.6960    -5.2450    -6.3110 hc         1 G81       0.029700
     61 H732         2.5190    -4.9660    -8.0700 hc         1 G81       0.029700
     62 H711         4.8090    -5.2640    -8.4700 h1         1 G81       0.015200
     63 H712         4.7210    -6.2320    -6.9770 h1         1 G81       0.015200
     64 H69          6.3750    -4.4140    -6.4740 hn         1 G81       0.194500
     65 H821         3.2530     1.1200    -6.9650 hc         1 G81       0.041700
     66 H822         1.6160     1.3360    -6.3320 hc         1 G81       0.041700
     67 H31C         2.0390     2.8900   -10.7160 h1         1 G81       0.008200
     68 H32C         0.4010     3.1050   -10.0850 h1         1 G81       0.008200
     69 H51C         0.9900     5.3230    -9.2270 hc         1 G81       0.011033
     70 H52C         2.6650     5.1050    -9.7530 hc         1 G81       0.011033
     71 H53C         1.3710     5.2350   -10.9520 hc         1 G81       0.011033
@<TRIPOS>BOND
     1     1     2 2   
     2     2     3 1   
     3     2     8 1   
     4     3     4 1   
     5     4     5 1   
     6     4     6 1   
     7     4     7 1   
     8     5    36 1   
     9     5    37 1   
    10     5    38 1   
    11     6    39 1   
    12     6    40 1   
    13     6    41 1   
    14     7    42 1   
    15     7    43 1   
    16     7    44 1   
    17     8     9 1   
    18     8    35 1   
    19     9    10 1   
    20     9    17 1   
    21     9    45 1   
    22    10    11 1   
    23    10    46 1   
    24    10    47 1   
    25    11    12 ar  
    26    11    16 ar  
    27    12    13 ar  
    28    12    48 1   
    29    13    14 ar  
    30    13    50 1   
    31    14    15 ar  
    32    14    51 1   
    33    15    16 ar  
    34    15    52 1   
    35    16    49 1   
    36    17    18 2   
    37    17    19 1   
    38    19    20 1   
    39    19    53 1   
    40    20    21 1   
    41    20    28 1   
    42    20    54 1   
    43    21    22 1   
    44    21    55 1   
    45    21    56 1   
    46    22    23 1   
    47    22    26 1   
    48    22    59 1   
    49    23    24 1   
    50    23    60 1   
    51    23    61 1   
    52    24    25 1   
    53    24    62 1   
    54    24    63 1   
    55    25    26 1   
    56    25    64 1   
    57    26    27 2   
    58    28    29 1   
    59    28    57 1   
    60    28    58 1   
    61    29    30 1   
    62    29    65 1   
    63    29    66 1   
    64    30    31 2   
    65    30    32 1   
    66    32    33 1   
    67    33    34 1   
    68    33    67 1   
    69    33    68 1   
    70    34    69 1   
    71    34    70 1   
    72    34    71 1   
@<TRIPOS>SUBSTRUCTURE
     1 G81         1 TEMP              0 ****  ****    0 ROOT
