@<TRIPOS>MOLECULE
molecule
   71    72     1     0     0
SMALL
bcc


@<TRIPOS>ATOM
      1 O35          0.0000     0.0000     0.0000 o          1 G81      -0.613000
      2 C31          1.2150     0.0000     0.0000 c          1 G81       0.754100
      3 O1           1.8880     0.0000     1.1650 os         1 G81      -0.433900
      4 C1           1.0990     0.0000     2.3840 c3         1 G81       0.179800
      5 C2           0.2160    -1.2490     2.4190 c3         1 G81      -0.107433
      6 C4           2.0320     0.0010     3.5960 c3         1 G81      -0.107433
      7 C6           0.2160     1.2500     2.4180 c3         1 G81      -0.107433
      8 N33          1.8890    -0.0070    -1.1680 ns         1 G81      -0.560900
      9 C37          1.1550    -0.0130    -2.4360 c3         1 G81       0.066700
     10 C41          0.7910     1.4220    -2.8230 c3         1 G81      -0.047100
     11 C51         -0.1710     1.9860    -1.8090 ca         1 G81      -0.069300
     12 C53          0.3090     2.6530    -0.6980 ca         1 G81      -0.114500
     13 C7          -0.5730     3.1700     0.2330 ca         1 G81      -0.120000
     14 C9          -1.9360     3.0220     0.0510 ca         1 G81      -0.127000
     15 C11         -2.4150     2.3560    -1.0620 ca         1 G81      -0.120000
     16 C55         -1.5340     1.8420    -1.9940 ca         1 G81      -0.114500
     17 C39          2.0190    -0.6190    -3.5130 c          1 G81       0.645100
     18 O47          3.1360    -1.0080    -3.2460 o          1 G81      -0.590100
     19 N49          1.5490    -0.7300    -4.7710 ns         1 G81      -0.583900
     20 C57          2.4240    -1.2170    -5.8400 c3         1 G81       0.102700
     21 C59          2.3270    -2.7430    -5.9220 c3         1 G81      -0.076400
     22 C61          3.3140    -3.2600    -6.9700 c3         1 G81      -0.163700
     23 C73          3.1230    -4.7780    -7.1910 c3         1 G81      -0.093400
     24 C71          4.5770    -5.2500    -7.4110 c3         1 G81       0.094000
     25 N69          5.4170    -4.2650    -6.7220 ns         1 G81      -0.588900
     26 C65          4.7360    -3.1340    -6.4670 c          1 G81       0.703500
     27 O66          5.1940    -2.1560    -5.9150 o          1 G81      -0.623500
     28 C63          1.9900    -0.6070    -7.1730 c3         1 G81      -0.084400
     29 C82          2.2050     0.9080    -7.1340 c3         1 G81      -0.126400
     30 C84          1.7770     1.5100    -8.4480 c          1 G81       0.631100
     31 O88          1.3460     0.8010    -9.3250 o          1 G81      -0.557000
     32 O86          1.8760     2.8340    -8.6430 os         1 G81      -0.430900
     33 C3           1.4460     3.3450    -9.9320 c3         1 G81       0.145400
     34 C5           1.6310     4.8630    -9.9680 c3         1 G81      -0.096100
     35 H33          2.8890    -0.0500    -1.1690 hn         1 G81       0.345500
     36 H21C         0.7360    -2.0720     1.9440 hc         1 G81       0.049811
     37 H22C        -0.7090    -1.0530     1.8900 hc         1 G81       0.049811
     38 H23C        -0.0040    -1.5070     3.4480 hc         1 G81       0.049811
     39 H41C         1.4430     0.0210     4.5050 hc         1 G81       0.049811
     40 H42C         2.6430    -0.8930     3.5820 hc         1 G81       0.049811
     41 H43C         2.6700     0.8750     3.5610 hc         1 G81       0.049811
     42 H61C        -0.1190     1.4270     3.4330 hc         1 G81       0.049811
     43 H62C        -0.6440     1.1030     1.7750 hc         1 G81       0.049811
     44 H63C         0.7840     2.1040     2.0710 hc         1 G81       0.049811
     45 H37          0.2500    -0.5990    -2.3270 h1         1 G81       0.095700
     46 H411         0.3270     1.4260    -3.8020 hc         1 G81       0.055200
     47 H412         1.6880     2.0280    -2.8460 hc         1 G81       0.055200
     48 H53          1.3760     2.7690    -0.5550 ha         1 G81       0.124500
     49 H55         -1.9100     1.3210    -2.8650 ha         1 G81       0.124500
     50 H7          -0.1960     3.6920     1.1050 ha         1 G81       0.125500
     51 H9          -2.6270     3.4250     0.7800 ha         1 G81       0.125000
     52 H11         -3.4820     2.2410    -1.2060 ha         1 G81       0.125500
     53 H49          0.5890    -0.5220    -4.9660 hn         1 G81       0.313500
     54 H57          3.4470    -0.9310    -5.6280 h1         1 G81       0.121700
     55 H591         2.5670    -3.1720    -4.9570 hc         1 G81       0.057200
     56 H592         1.3200    -3.0260    -6.2030 hc         1 G81       0.057200
     57 H631         0.9410    -0.8190    -7.3430 hc         1 G81       0.062700
     58 H632         2.5790    -1.0350    -7.9750 hc         1 G81       0.062700
     59 H61          3.1970    -2.7260    -7.9050 hc         1 G81       0.084700
     60 H731         2.6960    -5.2450    -6.3110 hc         1 G81       0.061200
     61 H732         2.5190    -4.9660    -8.0700 hc         1 G81       0.061200
     62 H711         4.8090    -5.2640    -8.4700 h1         1 G81       0.045700
     63 H712         4.7210    -6.2320    -6.9770 h1         1 G81       0.045700
     64 H69          6.3750    -4.4140    -6.4740 hn         1 G81       0.339500
     65 H821         3.2530     1.1200    -6.9650 hc         1 G81       0.078200
     66 H822         1.6160     1.3360    -6.3320 hc         1 G81       0.078200
     67 H31C         2.0390     2.8900   -10.7160 h1         1 G81       0.048200
     68 H32C         0.4010     3.1050   -10.0850 h1         1 G81       0.048200
     69 H51C         0.9900     5.3230    -9.2270 hc         1 G81       0.047700
     70 H52C         2.6650     5.1050    -9.7530 hc         1 G81       0.047700
     71 H53C         1.3710     5.2350   -10.9520 hc         1 G81       0.047700
@<TRIPOS>BOND
     1     1     2 2
     2     2     3 1
     3     2     8 1
     4     3     4 1
     5     4     5 1
     6     4     6 1
     7     4     7 1
     8     8     9 1
     9     9    10 1
    10     9    17 1
    11    10    11 1
    12    11    12 ar
    13    11    16 ar
    14    12    13 ar
    15    13    14 ar
    16    14    15 ar
    17    15    16 ar
    18    17    18 2
    19    17    19 1
    20    19    20 1
    21    20    21 1
    22    20    28 1
    23    21    22 1
    24    22    23 1
    25    22    26 1
    26    23    24 1
    27    24    25 1
    28    25    26 1
    29    26    27 2
    30    28    29 1
    31    29    30 1
    32    30    31 2
    33    30    32 1
    34    32    33 1
    35    33    34 1
    36     8    35 1
    37     5    36 1
    38     5    37 1
    39     5    38 1
    40     6    39 1
    41     6    40 1
    42     6    41 1
    43     7    42 1
    44     7    43 1
    45     7    44 1
    46     9    45 1
    47    10    46 1
    48    10    47 1
    49    12    48 1
    50    16    49 1
    51    13    50 1
    52    14    51 1
    53    15    52 1
    54    19    53 1
    55    20    54 1
    56    21    55 1
    57    21    56 1
    58    28    57 1
    59    28    58 1
    60    22    59 1
    61    23    60 1
    62    23    61 1
    63    24    62 1
    64    24    63 1
    65    25    64 1
    66    29    65 1
    67    29    66 1
    68    33    67 1
    69    33    68 1
    70    34    69 1
    71    34    70 1
    72    34    71 1
@<TRIPOS>SUBSTRUCTURE
     1 G81         1 TEMP              0 ****  ****    0 ROOT
