@<TRIPOS>MOLECULE
G82
  100   102     1     0     0
SMALL
bcc


@<TRIPOS>ATOM
      1 O88          0.0000     0.0000     0.0000 o          1 G82      -0.593000
      2 C84          1.2080     0.0000     0.0000 c          1 G82       0.694100
      3 O86          1.8790     0.0000     1.1620 os         1 G82      -0.414900
      4 C3           1.0890     0.0000     2.3800 c3         1 G82       0.226400
      5 C5           2.0210     0.0010     3.5930 c3         1 G82      -0.003100
      6 C82          1.9610    -0.0080    -1.3050 c3         1 G82      -0.074400
      7 C63          0.9670    -0.0130    -2.4680 c3         1 G82      -0.035400
      8 C57          1.7310    -0.0200    -3.7940 c3         1 G82      -0.012300
      9 C59          0.7420     0.1000    -4.9540 c3         1 G82      -0.019400
     10 C61          0.0640     1.4710    -4.9060 c3         1 G82      -0.142700
     11 C73         -1.0540     1.5590    -5.9700 c3         1 G82      -0.030400
     12 C71         -0.9340     3.0280    -6.4330 c3         1 G82       0.041000
     13 N69          0.4570     3.4110    -6.1620 ns         1 G82      -0.200900
     14 C65          1.0400     2.5580    -5.3030 c          1 G82       0.622500
     15 O66          2.1810     2.6450    -4.9040 o          1 G82      -0.659500
     16 N49          2.4800    -1.2740    -3.9180 ns         1 G82      -0.186900
     17 C39          3.6150    -1.3110    -4.6440 c          1 G82       0.559100
     18 O47          3.9670    -0.3330    -5.2690 o          1 G82      -0.628100
     19 C37          4.4470    -2.5670    -4.6780 c3         1 G82      -0.055300
     20 C41          4.9030    -2.9140    -3.2580 c3         1 G82       0.020900
     21 C51          5.6300    -4.2340    -3.2740 ca         1 G82      -0.085300
     22 C55          6.9980    -4.2680    -3.4740 ca         1 G82      -0.092500
     23 C11          7.6650    -5.4790    -3.4890 ca         1 G82      -0.089500
     24 C9           6.9650    -6.6560    -3.3030 ca         1 G82      -0.095000
     25 C7           5.5970    -6.6220    -3.1030 ca         1 G82      -0.089500
     26 C53          4.9310    -5.4110    -3.0840 ca         1 G82      -0.092500
     27 N33          5.6200    -2.3530    -5.5290 ns         1 G82      -0.158900
     28 C31          6.2240    -3.4030    -6.1190 c          1 G82       0.564100
     29 O35          5.7970    -4.5240    -5.9460 o          1 G82      -0.648100
     30 C23          7.4310    -3.1830    -6.9960 c3         1 G82      -0.045300
     31 C25          7.0540    -2.2680    -8.1630 c3         1 G82      -0.035400
     32 C15          8.3040    -1.9450    -8.9820 c3         1 G82      -0.089400
     33 C14          7.9330    -1.0450   -10.1320 c          1 G82       0.699100
     34 O2           8.8770    -0.6280   -10.9900 os         1 G82      -0.403900
     35 C29          8.4470     0.2380   -12.0740 c3         1 G82       0.177800
     36 C45          7.8280     1.5110   -11.4950 c3         1 G82      -0.027767
     37 C43          9.6530     0.6060   -12.9420 c3         1 G82      -0.027767
     38 C12          7.4080    -0.4920   -12.9280 c3         1 G82      -0.027767
     39 O1           6.7850    -0.6980   -10.2810 o          1 G82      -0.598000
     40 N21          7.8980    -4.4700    -7.5150 ns         1 G82      -0.147900
     41 C17          9.1870    -4.6220    -7.8810 c          1 G82       0.678100
     42 O19          9.9600    -3.6900    -7.7800 o          1 G82      -0.679000
     43 O15          9.6160    -5.8050    -8.3580 os         1 G82      -0.414900
     44 C13         11.0160    -5.8960    -8.7330 c3         1 G82       0.301700
     45 C4          11.3110    -7.2840    -9.2410 ca         1 G82      -0.120300
     46 C2          11.1720    -7.5720   -10.5860 ca         1 G82      -0.074000
     47 C1          11.4430    -8.8450   -11.0510 ca         1 G82      -0.106000
     48 C10         11.8530    -9.8290   -10.1720 ca         1 G82      -0.090000
     49 C8          11.9940    -9.5410    -8.8280 ca         1 G82      -0.106000
     50 C6          11.7270    -8.2670    -8.3630 ca         1 G82      -0.074000
     51 H821         2.5850     0.8760    -1.3670 hc         1 G82       0.041200
     52 H822         2.5830    -0.8930    -1.3580 hc         1 G82       0.041200
     53 H31C         0.4630    -0.8840     2.4050 h1         1 G82       0.009200
     54 H32C         0.4640     0.8850     2.4050 h1         1 G82       0.009200
     55 H51C         2.6770     0.8610     3.5440 hc         1 G82       0.011033
     56 H52C         1.4320     0.0470     4.5010 hc         1 G82       0.011033
     57 H53C         2.6130    -0.9060     3.5930 hc         1 G82       0.011033
     58 H631         0.3430    -0.8960    -2.4060 hc         1 G82       0.037200
     59 H632         0.3450     0.8730    -2.4150 hc         1 G82       0.037200
     60 H57          2.4200     0.8160    -3.8180 h1         1 G82       0.105700
     61 H591         1.2710    -0.0090    -5.8930 hc         1 G82       0.027700
     62 H592        -0.0090    -0.6770    -4.8700 hc         1 G82       0.027700
     63 H49          2.1230    -2.1120    -3.5050 hn         1 G82       0.175500
     64 H61         -0.3380     1.6680    -3.9200 hc         1 G82       0.059700
     65 H731        -0.8590     0.8790    -6.7910 hc         1 G82       0.029700
     66 H732        -2.0240     1.3730    -5.5250 hc         1 G82       0.029700
     67 H711        -1.6120     3.6540    -5.8660 h1         1 G82       0.015200
     68 H712        -1.1430     3.1030    -7.4930 h1         1 G82       0.015200
     69 H69          0.9120     4.2060    -6.5650 hn         1 G82       0.195500
     70 H37          3.8550    -3.3810    -5.0770 h1         1 G82       0.070700
     71 H411         5.5670    -2.1400    -2.8930 hc         1 G82       0.024200
     72 H412         4.0390    -2.9860    -2.6090 hc         1 G82       0.024200
     73 H33          5.9910    -1.4310    -5.6460 hn         1 G82       0.202500
     74 H55          7.5470    -3.3460    -3.6190 ha         1 G82       0.098500
     75 H53          3.8600    -5.3840    -2.9270 ha         1 G82       0.098500
     76 H11          8.7370    -5.5050    -3.6460 ha         1 G82       0.100500
     77 H9           7.4870    -7.6050    -3.3170 ha         1 G82       0.100000
     78 H7           5.0480    -7.5450    -2.9560 ha         1 G82       0.100500
     79 H23          8.2190    -2.7210    -6.4150 h1         1 G82       0.067700
     80 H251         6.6260    -1.3500    -7.7790 hc         1 G82       0.039200
     81 H252         6.3280    -2.7680    -8.7940 hc         1 G82       0.039200
     82 H21          7.2540    -5.2290    -7.6230 hn         1 G82       0.202500
     83 H151         8.7320    -2.8630    -9.3660 hc         1 G82       0.058200
     84 H152         9.0290    -1.4450    -8.3510 hc         1 G82       0.058200
     85 H451         8.3570     1.7920   -10.5930 hc         1 G82       0.018478
     86 H452         7.9010     2.3110   -12.2220 hc         1 G82       0.018478
     87 H453         6.7850     1.3310   -11.2610 hc         1 G82       0.018478
     88 H431        10.3940     1.1110   -12.3350 hc         1 G82       0.018478
     89 H432        10.0840    -0.2950   -13.3620 hc         1 G82       0.018478
     90 H433         9.3340     1.2620   -13.7430 hc         1 G82       0.018478
     91 H121         6.4310    -0.3940   -12.4700 hc         1 G82       0.018478
     92 H122         7.6700    -1.5410   -12.9970 hc         1 G82       0.018478
     93 H123         7.3870    -0.0590   -13.9200 hc         1 G82       0.018478
     94 H131        11.6360    -5.6880    -7.8690 h1         1 G82       0.014200
     95 H132        11.2290    -5.1740    -9.5120 h1         1 G82       0.014200
     96 H2          10.8500    -6.8000   -11.2740 ha         1 G82       0.106000
     97 H6          11.8370    -8.0410    -7.3090 ha         1 G82       0.106000
     98 H1          11.3330    -9.0710   -12.1050 ha         1 G82       0.103500
     99 H10         12.0640   -10.8270   -10.5370 ha         1 G82       0.102000
    100 H8          12.3170   -10.3120    -8.1390 ha         1 G82       0.103500
@<TRIPOS>BOND
     1     1     2 2   
     2     2     3 1   
     3     2     6 1   
     4     3     4 1   
     5     4     5 1   
     6     4    53 1   
     7     4    54 1   
     8     5    55 1   
     9     5    56 1   
    10     5    57 1   
    11     6     7 1   
    12     6    51 1   
    13     6    52 1   
    14     7     8 1   
    15     7    58 1   
    16     7    59 1   
    17     8     9 1   
    18     8    16 1   
    19     8    60 1   
    20     9    10 1   
    21     9    61 1   
    22     9    62 1   
    23    10    11 1   
    24    10    14 1   
    25    10    64 1   
    26    11    12 1   
    27    11    65 1   
    28    11    66 1   
    29    12    13 1   
    30    12    67 1   
    31    12    68 1   
    32    13    14 1   
    33    13    69 1   
    34    14    15 2   
    35    16    17 1   
    36    16    63 1   
    37    17    18 2   
    38    17    19 1   
    39    19    20 1   
    40    19    27 1   
    41    19    70 1   
    42    20    21 1   
    43    20    71 1   
    44    20    72 1   
    45    21    22 ar  
    46    21    26 ar  
    47    22    23 ar  
    48    22    74 1   
    49    23    24 ar  
    50    23    76 1   
    51    24    25 ar  
    52    24    77 1   
    53    25    26 ar  
    54    25    78 1   
    55    26    75 1   
    56    27    28 1   
    57    27    73 1   
    58    28    29 2   
    59    28    30 1   
    60    30    31 1   
    61    30    40 1   
    62    30    79 1   
    63    31    32 1   
    64    31    80 1   
    65    31    81 1   
    66    32    33 1   
    67    32    83 1   
    68    32    84 1   
    69    33    34 1   
    70    33    39 2   
    71    34    35 1   
    72    35    36 1   
    73    35    37 1   
    74    35    38 1   
    75    36    85 1   
    76    36    86 1   
    77    36    87 1   
    78    37    88 1   
    79    37    89 1   
    80    37    90 1   
    81    38    91 1   
    82    38    92 1   
    83    38    93 1   
    84    40    41 1   
    85    40    82 1   
    86    41    42 2   
    87    41    43 1   
    88    43    44 1   
    89    44    45 1   
    90    44    94 1   
    91    44    95 1   
    92    45    46 ar  
    93    45    50 ar  
    94    46    47 ar  
    95    46    96 1   
    96    47    48 ar  
    97    47    98 1   
    98    48    49 ar  
    99    48    99 1   
   100    49    50 ar  
   101    49   100 1   
   102    50    97 1   
@<TRIPOS>SUBSTRUCTURE
     1 G82         1 TEMP              0 ****  ****    0 ROOT
