@<TRIPOS>MOLECULE
molecule
  100   102     1     0     0
SMALL
bcc


@<TRIPOS>ATOM
      1 O88          0.0000     0.0000     0.0000 o          1 G82      -0.557000
      2 C84          1.2080     0.0000     0.0000 c          1 G82       0.631100
      3 O86          1.8790     0.0000     1.1620 os         1 G82      -0.430900
      4 C3           1.0890     0.0000     2.3800 c3         1 G82       0.145400
      5 C5           2.0210     0.0010     3.5930 c3         1 G82      -0.096100
      6 C82          1.9610    -0.0080    -1.3050 c3         1 G82      -0.127400
      7 C63          0.9670    -0.0130    -2.4680 c3         1 G82      -0.084400
      8 C57          1.7310    -0.0200    -3.7940 c3         1 G82       0.102700
      9 C59          0.7420     0.1000    -4.9540 c3         1 G82      -0.076400
     10 C61          0.0640     1.4710    -4.9060 c3         1 G82      -0.163700
     11 C73         -1.0540     1.5590    -5.9700 c3         1 G82      -0.093400
     12 C71         -0.9340     3.0280    -6.4330 c3         1 G82       0.094000
     13 N69          0.4570     3.4110    -6.1620 ns         1 G82      -0.588900
     14 C65          1.0400     2.5580    -5.3030 c          1 G82       0.704500
     15 O66          2.1810     2.6450    -4.9040 o          1 G82      -0.623500
     16 N49          2.4800    -1.2740    -3.9180 ns         1 G82      -0.582900
     17 C39          3.6150    -1.3110    -4.6440 c          1 G82       0.645100
     18 O47          3.9670    -0.3330    -5.2690 o          1 G82      -0.589100
     19 C37          4.4470    -2.5670    -4.6780 c3         1 G82       0.047700
     20 C41          4.9030    -2.9140    -3.2580 c3         1 G82      -0.047100
     21 C51          5.6300    -4.2340    -3.2740 ca         1 G82      -0.075300
     22 C55          6.9980    -4.2680    -3.4740 ca         1 G82      -0.117500
     23 C11          7.6650    -5.4790    -3.4890 ca         1 G82      -0.117500
     24 C9           6.9650    -6.6560    -3.3030 ca         1 G82      -0.123000
     25 C7           5.5970    -6.6220    -3.1030 ca         1 G82      -0.117500
     26 C53          4.9310    -5.4110    -3.0840 ca         1 G82      -0.117500
     27 N33          5.6200    -2.3530    -5.5290 ns         1 G82      -0.562900
     28 C31          6.2240    -3.4030    -6.1190 c          1 G82       0.654100
     29 O35          5.7970    -4.5240    -5.9460 o          1 G82      -0.599100
     30 C23          7.4310    -3.1830    -6.9960 c3         1 G82       0.063700
     31 C25          7.0540    -2.2680    -8.1630 c3         1 G82      -0.088400
     32 C15          8.3040    -1.9450    -8.9820 c3         1 G82      -0.123400
     33 C14          7.9330    -1.0450   -10.1320 c          1 G82       0.633100
     34 O2           8.8770    -0.6280   -10.9900 os         1 G82      -0.422900
     35 C29          8.4470     0.2380   -12.0740 c3         1 G82       0.158800
     36 C45          7.8280     1.5110   -11.4950 c3         1 G82      -0.104767
     37 C43          9.6530     0.6060   -12.9420 c3         1 G82      -0.104767
     38 C12          7.4080    -0.4920   -12.9280 c3         1 G82      -0.104767
     39 O1           6.7850    -0.6980   -10.2810 o          1 G82      -0.561000
     40 N21          7.8980    -4.4700    -7.5150 ns         1 G82      -0.555900
     41 C17          9.1870    -4.6220    -7.8810 c          1 G82       0.751100
     42 O19          9.9600    -3.6900    -7.7800 o          1 G82      -0.629000
     43 O15          9.6160    -5.8050    -8.3580 os         1 G82      -0.430900
     44 C13         11.0160    -5.8960    -8.7330 c3         1 G82       0.215700
     45 C4          11.3110    -7.2840    -9.2410 ca         1 G82      -0.101300
     46 C2          11.1720    -7.5720   -10.5860 ca         1 G82      -0.101500
     47 C1          11.4430    -8.8450   -11.0510 ca         1 G82      -0.133000
     48 C10         11.8530    -9.8290   -10.1720 ca         1 G82      -0.116000
     49 C8          11.9940    -9.5410    -8.8280 ca         1 G82      -0.133000
     50 C6          11.7270    -8.2670    -8.3630 ca         1 G82      -0.101500
     51 H821         2.5850     0.8760    -1.3670 hc         1 G82       0.078200
     52 H822         2.5830    -0.8930    -1.3580 hc         1 G82       0.078200
     53 H31C         0.4630    -0.8840     2.4050 h1         1 G82       0.048200
     54 H32C         0.4640     0.8850     2.4050 h1         1 G82       0.048200
     55 H51C         2.6770     0.8610     3.5440 hc         1 G82       0.048033
     56 H52C         1.4320     0.0470     4.5010 hc         1 G82       0.048033
     57 H53C         2.6130    -0.9060     3.5930 hc         1 G82       0.048033
     58 H631         0.3430    -0.8960    -2.4060 hc         1 G82       0.062700
     59 H632         0.3450     0.8730    -2.4150 hc         1 G82       0.062700
     60 H57          2.4200     0.8160    -3.8180 h1         1 G82       0.120700
     61 H591         1.2710    -0.0090    -5.8930 hc         1 G82       0.057700
     62 H592        -0.0090    -0.6770    -4.8700 hc         1 G82       0.057700
     63 H49          2.1230    -2.1120    -3.5050 hn         1 G82       0.312500
     64 H61         -0.3380     1.6680    -3.9200 hc         1 G82       0.083700
     65 H731        -0.8590     0.8790    -6.7910 hc         1 G82       0.061200
     66 H732        -2.0240     1.3730    -5.5250 hc         1 G82       0.061200
     67 H711        -1.6120     3.6540    -5.8660 h1         1 G82       0.045700
     68 H712        -1.1430     3.1030    -7.4930 h1         1 G82       0.045700
     69 H69          0.9120     4.2060    -6.5650 hn         1 G82       0.339500
     70 H37          3.8550    -3.3810    -5.0770 h1         1 G82       0.096700
     71 H411         5.5670    -2.1400    -2.8930 hc         1 G82       0.055700
     72 H412         4.0390    -2.9860    -2.6090 hc         1 G82       0.055700
     73 H33          5.9910    -1.4310    -5.6460 hn         1 G82       0.340500
     74 H55          7.5470    -3.3460    -3.6190 ha         1 G82       0.122000
     75 H53          3.8600    -5.3840    -2.9270 ha         1 G82       0.122000
     76 H11          8.7370    -5.5050    -3.6460 ha         1 G82       0.127500
     77 H9           7.4870    -7.6050    -3.3170 ha         1 G82       0.127000
     78 H7           5.0480    -7.5450    -2.9560 ha         1 G82       0.127500
     79 H23          8.2190    -2.7210    -6.4150 h1         1 G82       0.094700
     80 H251         6.6260    -1.3500    -7.7790 hc         1 G82       0.070200
     81 H252         6.3280    -2.7680    -8.7940 hc         1 G82       0.070200
     82 H21          7.2540    -5.2290    -7.6230 hn         1 G82       0.348500
     83 H151         8.7320    -2.8630    -9.3660 hc         1 G82       0.087200
     84 H152         9.0290    -1.4450    -8.3510 hc         1 G82       0.087200
     85 H451         8.3570     1.7920   -10.5930 hc         1 G82       0.048700
     86 H452         7.9010     2.3110   -12.2220 hc         1 G82       0.048700
     87 H453         6.7850     1.3310   -11.2610 hc         1 G82       0.048700
     88 H431        10.3940     1.1110   -12.3350 hc         1 G82       0.048700
     89 H432        10.0840    -0.2950   -13.3620 hc         1 G82       0.048700
     90 H433         9.3340     1.2620   -13.7430 hc         1 G82       0.048700
     91 H121         6.4310    -0.3940   -12.4700 hc         1 G82       0.048700
     92 H122         7.6700    -1.5410   -12.9970 hc         1 G82       0.048700
     93 H123         7.3870    -0.0590   -13.9200 hc         1 G82       0.048700
     94 H131        11.6360    -5.6880    -7.8690 h1         1 G82       0.057200
     95 H132        11.2290    -5.1740    -9.5120 h1         1 G82       0.057200
     96 H2          10.8500    -6.8000   -11.2740 ha         1 G82       0.134000
     97 H6          11.8370    -8.0410    -7.3090 ha         1 G82       0.134000
     98 H1          11.3330    -9.0710   -12.1050 ha         1 G82       0.132000
     99 H10         12.0640   -10.8270   -10.5370 ha         1 G82       0.130000
    100 H8          12.3170   -10.3120    -8.1390 ha         1 G82       0.132000
@<TRIPOS>BOND
     1     1     2 2
     2     2     3 1
     3     2     6 1
     4     3     4 1
     5     4     5 1
     6     6     7 1
     7     7     8 1
     8     8     9 1
     9     8    16 1
    10     9    10 1
    11    10    11 1
    12    10    14 1
    13    11    12 1
    14    12    13 1
    15    13    14 1
    16    14    15 2
    17    16    17 1
    18    17    18 2
    19    17    19 1
    20    19    20 1
    21    19    27 1
    22    20    21 1
    23    21    22 ar
    24    21    26 ar
    25    22    23 ar
    26    23    24 ar
    27    24    25 ar
    28    25    26 ar
    29    27    28 1
    30    28    29 2
    31    28    30 1
    32    30    31 1
    33    30    40 1
    34    31    32 1
    35    32    33 1
    36    33    34 1
    37    33    39 2
    38    34    35 1
    39    35    36 1
    40    35    37 1
    41    35    38 1
    42    40    41 1
    43    41    42 2
    44    41    43 1
    45    43    44 1
    46    44    45 1
    47    45    46 ar
    48    45    50 ar
    49    46    47 ar
    50    47    48 ar
    51    48    49 ar
    52    49    50 ar
    53     6    51 1
    54     6    52 1
    55     4    53 1
    56     4    54 1
    57     5    55 1
    58     5    56 1
    59     5    57 1
    60     7    58 1
    61     7    59 1
    62     8    60 1
    63     9    61 1
    64     9    62 1
    65    16    63 1
    66    10    64 1
    67    11    65 1
    68    11    66 1
    69    12    67 1
    70    12    68 1
    71    13    69 1
    72    19    70 1
    73    20    71 1
    74    20    72 1
    75    27    73 1
    76    22    74 1
    77    26    75 1
    78    23    76 1
    79    24    77 1
    80    25    78 1
    81    30    79 1
    82    31    80 1
    83    31    81 1
    84    40    82 1
    85    32    83 1
    86    32    84 1
    87    36    85 1
    88    36    86 1
    89    36    87 1
    90    37    88 1
    91    37    89 1
    92    37    90 1
    93    38    91 1
    94    38    92 1
    95    38    93 1
    96    44    94 1
    97    44    95 1
    98    46    96 1
    99    50    97 1
   100    47    98 1
   101    48    99 1
   102    49   100 1
@<TRIPOS>SUBSTRUCTURE
     1 G82         1 TEMP              0 ****  ****    0 ROOT
