@<TRIPOS>MOLECULE
G83
   97    99     1     0     0
SMALL
bcc


@<TRIPOS>ATOM
      1 O19          0.0000     0.0000     0.0000 o          1 G83      -0.670000
      2 C17          1.2160     0.0000     0.0000 c          1 G83       0.696100
      3 O15          1.8880     0.0000     1.1660 os         1 G83      -0.416900
      4 C13          1.0970    -0.0000     2.3840 c3         1 G83       0.301700
      5 C4           2.0150    -0.0000     3.5800 ca         1 G83      -0.117300
      6 C6           2.4350     1.1960     4.1280 ca         1 G83      -0.074500
      7 C8           3.2770     1.1970     5.2250 ca         1 G83      -0.108000
      8 C10          3.6980    -0.0000     5.7730 ca         1 G83      -0.093000
      9 C1           3.2760    -1.1980     5.2250 ca         1 G83      -0.108000
     10 C2           2.4310    -1.1970     4.1320 ca         1 G83      -0.074500
     11 N21          1.8900    -0.0060    -1.1660 ns         1 G83      -0.123900
     12 C23          1.1620    -0.1230    -2.4330 c3         1 G83      -0.037300
     13 C25          1.9060     0.6520    -3.5220 c3         1 G83      -0.087400
     14 C14          1.8800     2.1240    -3.1980 c          1 G83       0.693100
     15 O1           1.2370     2.5230    -2.2560 o          1 G83      -0.577000
     16 O2           2.5710     2.9900    -3.9550 os         1 G83      -0.405900
     17 C29          2.5000     4.3920    -3.5850 c3         1 G83       0.179800
     18 C12          3.0360     4.5710    -2.1630 c3         1 G83      -0.027767
     19 C43          3.3430     5.2200    -4.5560 c3         1 G83      -0.027767
     20 C45          1.0450     4.8620    -3.6440 c3         1 G83      -0.027767
     21 C31          1.0670    -1.5750    -2.8250 c          1 G83       0.550100
     22 O35          1.5590    -2.4280    -2.1160 o          1 G83      -0.634100
     23 N33          0.4350    -1.9260    -3.9630 ns         1 G83      -0.170900
     24 C37          0.3430    -3.3380    -4.3440 c3         1 G83      -0.054300
     25 C41         -0.8620    -3.9750    -3.6510 c3         1 G83       0.021900
     26 C51         -0.6410    -3.9790    -2.1610 ca         1 G83      -0.093300
     27 C53         -1.0630    -2.9060    -1.3970 ca         1 G83      -0.091000
     28 C7          -0.8600    -2.9090    -0.0300 ca         1 G83      -0.087500
     29 C9          -0.2360    -3.9860     0.5740 ca         1 G83      -0.103000
     30 C11          0.1840    -5.0580    -0.1900 ca         1 G83      -0.087500
     31 C55         -0.0220    -5.0570    -1.5570 ca         1 G83      -0.091000
     32 C39          0.1790    -3.4440    -5.8390 c          1 G83       0.561100
     33 O47          0.1430    -2.4400    -6.5170 o          1 G83      -0.636100
     34 N49          0.0730    -4.6550    -6.4200 ns         1 G83      -0.185900
     35 C57          0.0230    -4.7660    -7.8800 c3         1 G83      -0.016300
     36 C59          1.4470    -4.8540    -8.4330 c3         1 G83      -0.017400
     37 C61          1.4030    -4.8130    -9.9620 c3         1 G83      -0.142700
     38 C73          2.8120    -5.0650   -10.5510 c3         1 G83      -0.029400
     39 C71          2.8140    -4.1230   -11.7750 c3         1 G83       0.041000
     40 N69          1.8510    -3.0620   -11.4550 ns         1 G83      -0.202900
     41 C65          1.0430    -3.4250   -10.4440 c          1 G83       0.620500
     42 O66          0.1530    -2.7400    -9.9860 o          1 G83      -0.658500
     43 C63         -0.7560    -6.0230    -8.2710 c3         1 G83      -0.033400
     44 C82         -2.2130    -5.8790    -7.8270 c3         1 G83      -0.074400
     45 C84         -2.9800    -7.1170    -8.2110 c          1 G83       0.694100
     46 O88         -2.4200    -8.0230    -8.7830 o          1 G83      -0.594000
     47 O86         -4.2870    -7.2150    -7.9190 os         1 G83      -0.413900
     48 C3          -4.9620    -8.4360    -8.3190 c3         1 G83       0.226400
     49 C5          -6.4330    -8.3660    -7.9060 c3         1 G83      -0.003100
     50 H21          2.8900     0.0290    -1.1660 hn         1 G83       0.174500
     51 H131         0.4720    -0.8850     2.4080 h1         1 G83       0.014200
     52 H132         0.4720     0.8840     2.4090 h1         1 G83       0.014200
     53 H6           2.1050     2.1340     3.6980 ha         1 G83       0.107500
     54 H2           2.1010    -2.1360     3.7020 ha         1 G83       0.107500
     55 H8           3.6070     2.1350     5.6540 ha         1 G83       0.103000
     56 H10          4.3590    -0.0010     6.6310 ha         1 G83       0.101000
     57 H1           3.6040    -2.1360     5.6560 ha         1 G83       0.103000
     58 H23          0.1660     0.2850    -2.3160 h1         1 G83       0.093700
     59 H251         1.4240     0.4840    -4.4770 hc         1 G83       0.049700
     60 H252         2.9330     0.3110    -3.5710 hc         1 G83       0.049700
     61 H121         3.8320     3.8580    -1.9840 hc         1 G83       0.019700
     62 H122         2.2360     4.4050    -1.4510 hc         1 G83       0.019700
     63 H123         3.4200     5.5770    -2.0450 hc         1 G83       0.019700
     64 H431         4.3020     4.7370    -4.7040 hc         1 G83       0.019700
     65 H432         3.4980     6.2110    -4.1470 hc         1 G83       0.019700
     66 H433         2.8280     5.2980    -5.5060 hc         1 G83       0.019700
     67 H451         0.5360     4.3600    -4.4580 hc         1 G83       0.019700
     68 H452         1.0180     5.9330    -3.8080 hc         1 G83       0.019700
     69 H453         0.5510     4.6280    -2.7090 hc         1 G83       0.019700
     70 H33         -0.0050    -1.2260    -4.5270 hn         1 G83       0.197500
     71 H37          1.2470    -3.8530    -4.0430 h1         1 G83       0.070700
     72 H411        -1.7550    -3.4060    -3.8830 hc         1 G83       0.022700
     73 H412        -0.9830    -4.9940    -4.0010 hc         1 G83       0.022700
     74 H53         -1.5510    -2.0630    -1.8710 ha         1 G83       0.099500
     75 H55          0.3070    -5.8980    -2.1550 ha         1 G83       0.099500
     76 H7          -1.1890    -2.0680     0.5680 ha         1 G83       0.109000
     77 H9          -0.0760    -3.9880     1.6450 ha         1 G83       0.096000
     78 H11          0.6700    -5.9020     0.2830 ha         1 G83       0.109000
     79 H49          0.0740    -5.4820    -5.8560 hn         1 G83       0.176500
     80 H57         -0.4700    -3.8930    -8.2920 h1         1 G83       0.108700
     81 H591         1.9030    -5.7820    -8.1100 hc         1 G83       0.024700
     82 H592         2.0300    -4.0190    -8.0660 hc         1 G83       0.024700
     83 H631        -0.7170    -6.1520    -9.3460 hc         1 G83       0.036700
     84 H632        -0.3140    -6.8860    -7.7880 hc         1 G83       0.036700
     85 H61          0.6990    -5.5400   -10.3470 hc         1 G83       0.061700
     86 H731         2.9210    -6.0970   -10.8590 hc         1 G83       0.029700
     87 H732         3.5820    -4.7800    -9.8440 hc         1 G83       0.029700
     88 H711         3.8010    -3.7000   -11.9190 h1         1 G83       0.015700
     89 H712         2.4970    -4.6610   -12.6600 h1         1 G83       0.015700
     90 H69          1.8030    -2.1820   -11.9290 hn         1 G83       0.195500
     91 H821        -2.6540    -5.0160    -8.3110 hc         1 G83       0.042200
     92 H822        -2.2520    -5.7490    -6.7520 hc         1 G83       0.042200
     93 H31C        -4.8940    -8.5510    -9.3940 h1         1 G83       0.008200
     94 H32C        -4.4910    -9.2840    -7.8360 h1         1 G83       0.008200
     95 H51C        -6.5000    -8.2070    -6.8360 hc         1 G83       0.011367
     96 H52C        -6.9150    -7.5450    -8.4240 hc         1 G83       0.011367
     97 H53C        -6.9260    -9.2950    -8.1640 hc         1 G83       0.011367
@<TRIPOS>BOND
     1     1     2 2   
     2     2     3 1   
     3     2    11 1   
     4     3     4 1   
     5     4     5 1   
     6     4    51 1   
     7     4    52 1   
     8     5     6 ar  
     9     5    10 ar  
    10     6     7 ar  
    11     6    53 1   
    12     7     8 ar  
    13     7    55 1   
    14     8     9 ar  
    15     8    56 1   
    16     9    10 ar  
    17     9    57 1   
    18    10    54 1   
    19    11    12 1   
    20    11    50 1   
    21    12    13 1   
    22    12    21 1   
    23    12    58 1   
    24    13    14 1   
    25    13    59 1   
    26    13    60 1   
    27    14    15 2   
    28    14    16 1   
    29    16    17 1   
    30    17    18 1   
    31    17    19 1   
    32    17    20 1   
    33    18    61 1   
    34    18    62 1   
    35    18    63 1   
    36    19    64 1   
    37    19    65 1   
    38    19    66 1   
    39    20    67 1   
    40    20    68 1   
    41    20    69 1   
    42    21    22 2   
    43    21    23 1   
    44    23    24 1   
    45    23    70 1   
    46    24    25 1   
    47    24    32 1   
    48    24    71 1   
    49    25    26 1   
    50    25    72 1   
    51    25    73 1   
    52    26    27 ar  
    53    26    31 ar  
    54    27    28 ar  
    55    27    74 1   
    56    28    29 ar  
    57    28    76 1   
    58    29    30 ar  
    59    29    77 1   
    60    30    31 ar  
    61    30    78 1   
    62    31    75 1   
    63    32    33 2   
    64    32    34 1   
    65    34    35 1   
    66    34    79 1   
    67    35    36 1   
    68    35    43 1   
    69    35    80 1   
    70    36    37 1   
    71    36    81 1   
    72    36    82 1   
    73    37    38 1   
    74    37    41 1   
    75    37    85 1   
    76    38    39 1   
    77    38    86 1   
    78    38    87 1   
    79    39    40 1   
    80    39    88 1   
    81    39    89 1   
    82    40    41 1   
    83    40    90 1   
    84    41    42 2   
    85    43    44 1   
    86    43    83 1   
    87    43    84 1   
    88    44    45 1   
    89    44    91 1   
    90    44    92 1   
    91    45    46 2   
    92    45    47 1   
    93    47    48 1   
    94    48    49 1   
    95    48    93 1   
    96    48    94 1   
    97    49    95 1   
    98    49    96 1   
    99    49    97 1   
@<TRIPOS>SUBSTRUCTURE
     1 G83         1 TEMP              0 ****  ****    0 ROOT
