@<TRIPOS>MOLECULE
G87
   39    41     1     0     0
SMALL
bcc


@<TRIPOS>ATOM
      1 C13          0.0000     0.0000     0.0000 cc         1 G87       0.549700
      2 C16          2.9470    -0.0010     1.9410 cc         1 G87       0.139800
      3 C01          1.3830     5.5060    -0.7430 c3         1 G87       0.061200
      4 C02          0.9630     4.3960    -1.6740 ca         1 G87      -0.085300
      5 C03         -0.0220     3.5080    -1.2870 ca         1 G87      -0.046600
      6 C04         -0.4080     2.4850    -2.1460 ca         1 G87       0.053600
      7 C05          0.1980     2.3610    -3.3890 ca         1 G87      -0.041600
      8 C06          1.1830     3.2530    -3.7690 ca         1 G87      -0.087000
      9 C07          1.5600     4.2730    -2.9140 ca         1 G87      -0.082000
     10 Cl          -0.2800     1.0850    -4.4650 cl         1 G87       0.051600
     11 N09         -1.4050     1.5840    -1.7580 nu         1 G87      -0.406500
     12 S10         -1.0150     0.0060    -1.4400 sy         1 G87       0.995000
     13 O11         -0.1930    -0.4280    -2.5130 o          1 G87      -0.555800
     14 O12         -2.2280    -0.6410    -1.0780 o          1 G87      -0.555800
     15 N14          1.3100     0.0000     0.0000 nd         1 G87      -0.657100
     16 N15          1.7220     0.0000     1.3390 na         1 G87       0.443200
     17 C17          3.0130    -0.0010     3.3040 cd         1 G87      -0.397300
     18 C18          1.8230    -0.0010     4.0450 cd         1 G87       0.693600
     19 N19          0.6550    -0.0010     3.4280 nc         1 G87      -0.663000
     20 C20          0.5820    -0.0010     2.0920 cd         1 G87       0.270500
     21 N21         -0.4460    -0.0000     1.2510 nc         1 G87      -0.318300
     22 O22          1.8710    -0.0020     5.3990 os         1 G87      -0.421100
     23 C23          0.6220    -0.0020     6.0930 c3         1 G87       0.254700
     24 O24          4.0770    -0.0000     1.1990 os         1 G87      -0.271900
     25 C25          5.3180    -0.0010     1.9070 c3         1 G87       0.252700
     26 H1           2.1660     6.0920    -1.2090 hc         1 G87       0.012367
     27 H2           1.7520     5.0800     0.1830 hc         1 G87       0.012367
     28 H3           0.5310     6.1420    -0.5330 hc         1 G87       0.012367
     29 H4           1.6550     3.1590    -4.7390 ha         1 G87       0.117000
     30 H5           2.3320     4.9710    -3.2140 ha         1 G87       0.111000
     31 H6          -2.3590     1.8840    -1.7110 hn         1 G87       0.358800
     32 H7           3.9730    -0.0020     3.8070 ha         1 G87       0.161000
     33 H8           0.8020    -0.0020     7.1610 h1         1 G87       0.007367
     34 H9           0.0580    -0.8860     5.8210 h1         1 G87       0.007367
     35 H10          0.0590     0.8830     5.8220 h1         1 G87       0.007367
     36 H11          6.1380    -0.0010     1.1990 h1         1 G87       0.008367
     37 H12          5.3790     0.8830     2.5300 h1         1 G87       0.008367
     38 H13          5.3790    -0.8860     2.5290 h1         1 G87       0.008367
     39 Cl1         -0.7770     3.6690     0.2680 cl         1 G87      -0.008400
@<TRIPOS>BOND
     1     1    12 1   
     2     1    15 2   
     3     1    21 1   
     4     2    16 1   
     5     2    17 2   
     6     2    24 1   
     7     3     4 1   
     8     3    26 1   
     9     3    27 1   
    10     3    28 1   
    11     4     5 ar  
    12     4     9 ar  
    13     5     6 ar  
    14     5    39 1   
    15     6     7 ar  
    16     6    11 1   
    17     7     8 ar  
    18     7    10 1   
    19     8     9 ar  
    20     8    29 1   
    21     9    30 1   
    22    11    12 1   
    23    11    31 1   
    24    12    13 2   
    25    12    14 2   
    26    15    16 1   
    27    16    20 1   
    28    17    18 1   
    29    17    32 1   
    30    18    19 2   
    31    18    22 1   
    32    19    20 1   
    33    20    21 2   
    34    22    23 1   
    35    23    33 1   
    36    23    34 1   
    37    23    35 1   
    38    24    25 1   
    39    25    36 1   
    40    25    37 1   
    41    25    38 1   
@<TRIPOS>SUBSTRUCTURE
     1 G87         1 TEMP              0 ****  ****    0 ROOT
