@<TRIPOS>MOLECULE
molecule
   39    41     1     0     0
SMALL
bcc


@<TRIPOS>ATOM
      1 C13          0.0000     0.0000     0.0000 cc         1 G87       0.400700
      2 C16          2.9470    -0.0010     1.9410 cc         1 G87       0.300800
      3 C01          1.3830     5.5060    -0.7430 c3         1 G87      -0.047800
      4 C02          0.9630     4.3960    -1.6740 ca         1 G87      -0.074300
      5 C03         -0.0220     3.5080    -1.2870 ca         1 G87       0.029400
      6 C04         -0.4080     2.4850    -2.1460 ca         1 G87       0.130600
      7 C05          0.1980     2.3610    -3.3890 ca         1 G87       0.038400
      8 C06          1.1830     3.2530    -3.7690 ca         1 G87      -0.113000
      9 C07          1.5600     4.2730    -2.9140 ca         1 G87      -0.106000
     10 Cl          -0.2800     1.0850    -4.4650 cl         1 G87      -0.049400
     11 N09         -1.4050     1.5840    -1.7580 nu         1 G87      -0.765500
     12 S10         -1.0150     0.0060    -1.4400 sy         1 G87       1.376000
     13 O11         -0.1930    -0.4280    -2.5130 o          1 G87      -0.591800
     14 O12         -2.2280    -0.6410    -1.0780 o          1 G87      -0.591800
     15 N14          1.3100     0.0000     0.0000 nd         1 G87      -0.498100
     16 N15          1.7220     0.0000     1.3390 na         1 G87      -0.012800
     17 C17          3.0130    -0.0010     3.3040 cd         1 G87      -0.421300
     18 C18          1.8230    -0.0010     4.0450 cc         1 G87       0.745600
     19 N19          0.6550    -0.0010     3.4280 nd         1 G87      -0.784000
     20 C20          0.5820    -0.0010     2.0920 cd         1 G87       0.506500
     21 N21         -0.4460    -0.0000     1.2510 nc         1 G87      -0.376300
     22 O22          1.8710    -0.0020     5.3990 os         1 G87      -0.427100
     23 C23          0.6220    -0.0020     6.0930 c3         1 G87       0.131700
     24 O24          4.0770    -0.0000     1.1990 os         1 G87      -0.292900
     25 C25          5.3180    -0.0010     1.9070 c3         1 G87       0.130700
     26 H1           2.1660     6.0920    -1.2090 hc         1 G87       0.051033
     27 H2           1.7520     5.0800     0.1830 hc         1 G87       0.051033
     28 H3           0.5310     6.1420    -0.5330 hc         1 G87       0.051033
     29 H4           1.6550     3.1590    -4.7390 ha         1 G87       0.153000
     30 H5           2.3320     4.9710    -3.2140 ha         1 G87       0.144000
     31 H6          -2.3590     1.8840    -1.7110 hn         1 G87       0.477800
     32 H7           3.9730    -0.0020     3.8070 ha         1 G87       0.176000
     33 H8           0.8020    -0.0020     7.1610 h1         1 G87       0.057033
     34 H9           0.0580    -0.8860     5.8210 h1         1 G87       0.057033
     35 H10          0.0590     0.8830     5.8220 h1         1 G87       0.057033
     36 H11          6.1380    -0.0010     1.1990 h1         1 G87       0.057367
     37 H12          5.3790     0.8830     2.5300 h1         1 G87       0.057367
     38 H13          5.3790    -0.8860     2.5290 h1         1 G87       0.057367
     39 Cl1         -0.7770     3.6690     0.2680 cl         1 G87      -0.082400
@<TRIPOS>BOND
     1    14    12 2
     2    13    12 2
     3    39     5 1
     4    12     1 1
     5    12    11 1
     6    24    25 1
     7    24     2 1
     8    15     1 2
     9    15    16 1
    10     1    21 1
    11     3     4 1
    12     2    16 1
    13     2    17 2
    14    16    20 1
    15     5     4 ar
    16     5     6 ar
    17    11     6 1
    18    21    20 2
    19     4     9 ar
    20    20    19 1
    21    17    18 1
    22     6     7 ar
    23    19    18 2
    24    18    22 1
    25     9     8 ar
    26     7     8 ar
    27     7    10 1
    28    22    23 1
    29     3    26 1
    30     3    27 1
    31     3    28 1
    32     8    29 1
    33     9    30 1
    34    11    31 1
    35    17    32 1
    36    23    33 1
    37    23    34 1
    38    23    35 1
    39    25    36 1
    40    25    37 1
    41    25    38 1
@<TRIPOS>SUBSTRUCTURE
     1 G87         1 TEMP              0 ****  ****    0 ROOT
