@<TRIPOS>MOLECULE
molecule
   21    20     1     0     0
SMALL
bcc


@<TRIPOS>ATOM
      1 O6           0.0000     0.0000     0.0000 o          1 G88      -0.897300
      2 C6           1.2230     0.0000     0.0000 c          1 G88       0.922600
      3 O7           1.9820     0.0000     1.1230 o          1 G88      -0.897300
      4 C5           2.0800     0.0050    -1.2380 c3         1 G88      -0.163400
      5 C4           1.3730     0.6350    -2.4400 c3         1 G88      -0.043400
      6 C2           1.0080     2.1170    -2.2360 c3         1 G88      -0.121700
      7 C3           2.2330     2.9630    -1.9260 c          1 G88       0.931600
      8 O5           2.1410     3.5760    -0.7170 o          1 G88      -0.902300
      9 O4           3.1930     3.1060    -2.6710 o          1 G88      -0.902300
     10 C1           0.3030     2.6920    -3.4660 c3         1 G88      -0.220600
     11 P1          -0.2430     4.4080    -3.2900 p5         1 G88       1.130700
     12 O2           0.8670     5.3600    -3.0180 o          1 G88      -0.955833
     13 O3          -1.3790     4.2940    -2.1540 o          1 G88      -0.955833
     14 O1          -1.0720     4.6470    -4.6480 o          1 G88      -0.955833
     15 H5C1         2.3440    -1.0160    -1.4840 hc         1 G88       0.001200
     16 H5C2         2.9860     0.5620    -1.0340 hc         1 G88       0.001200
     17 H4C1         2.0230     0.5550    -3.3040 hc         1 G88      -0.021300
     18 H4C2         0.4650     0.0790    -2.6380 hc         1 G88      -0.021300
     19 H2           0.3290     2.1850    -1.3950 hc         1 G88       0.094700
     20 H1C1         0.9820     2.6350    -4.3080 hc         1 G88      -0.011800
     21 H1C2        -0.5630     2.0780    -3.6820 hc         1 G88      -0.011800
@<TRIPOS>BOND
     1     1     2 1
     2     2     3 1
     3     2     4 1
     4     4    15 1
     5     4    16 1
     6     4     5 1
     7     5    17 1
     8     5    18 1
     9     5     6 1
    10     6    19 1
    11     6    10 1
    12     6     7 1
    13     7     8 1
    14     7     9 1
    15    10    20 1
    16    10    21 1
    17    10    11 1
    18    11    14 1
    19    11    12 1
    20    11    13 1
@<TRIPOS>SUBSTRUCTURE
     1 G88         1 TEMP              0 ****  ****    0 ROOT
