@<TRIPOS>MOLECULE
G88
   21    20     1     0     0
SMALL
bcc


@<TRIPOS>ATOM
      1 O6          1.0810   -1.9010   -1.2400 o         1 G88     -0.921300
      2 C6          1.1460   -0.9890   -0.3550 c         1 G88      0.899600
      3 O7          0.9510   -1.3060    0.8720 o         1 G88     -0.921300
      4 C5          1.5240    0.4540   -0.6770 c3        1 G88     -0.160400
      5 C4          0.9960    1.0540   -1.9680 c3        1 G88     -0.040400
      6 C2          1.4810    2.4910   -2.2000 c3        1 G88     -0.079700
      7 C3          3.0000    2.4820   -2.4670 c         1 G88      0.907600
      8 O5          3.7900    3.0160   -1.6110 o         1 G88     -0.928800
      9 O4          3.5070    1.9440   -3.5070 o         1 G88     -0.928800
     10 C1          0.7100    3.1820   -3.3320 c3        1 G88     -0.255600
     11 P1         -0.7790    4.3360   -3.3530 p5        1 G88      1.211700
     12 O2         -0.3130    5.4760   -4.2480 o         1 G88     -0.973833
     13 O3         -1.1450    4.8090   -1.9610 o         1 G88     -0.973833
     14 O1         -1.8790    3.5270   -4.0180 o         1 G88     -0.973833
     15 H5C1        1.1900    1.0920    0.1830 hc        1 G88      0.024200
     16 H5C2        2.6460    0.4980   -0.7050 hc        1 G88      0.024200
     17 H4C1        1.3240    0.4140   -2.8280 hc        1 G88      0.025200
     18 H4C2       -0.1240    1.0460   -1.9480 hc        1 G88      0.025200
     19 H2          1.3350    3.0610   -1.2400 hc        1 G88      0.023700
     20 H1C1        0.3780    2.3850   -4.0410 hc        1 G88      0.008200
     21 H1C2        1.4550    3.8100   -3.8820 hc        1 G88      0.008200
@<TRIPOS>BOND
     1    1    2 1   
     2    2    3 1   
     3    2    4 1   
     4    4    5 1   
     5    4   15 1   
     6    4   16 1   
     7    5    6 1   
     8    5   17 1   
     9    5   18 1   
    10    6    7 1   
    11    6   10 1   
    12    6   19 1   
    13    7    8 1   
    14    7    9 1   
    15   10   11 1   
    16   10   20 1   
    17   10   21 1   
    18   11   12 1   
    19   11   13 1   
    20   11   14 1   
@<TRIPOS>SUBSTRUCTURE
     1 G88         1 TEMP              0 ****  ****    0 ROOT
