@<TRIPOS>MOLECULE
molecule
   42    43     1     0     0
SMALL
bcc


@<TRIPOS>ATOM
      1 C02          0.0000     0.0000     0.0000 ca         1 G8A       0.614100
      2 C04          0.0130    -0.0000     2.3040 ca         1 G8A       0.853900
      3 C06         -2.0450     0.1060     3.4760 c          1 G8A       0.787100
      4 C09         -4.8930     1.6380     3.7130 ca         1 G8A      -0.246500
      5 C10         -4.5630     2.9150     4.1750 ca         1 G8A      -0.051600
      6 C11         -3.7870     3.0740     5.4220 c          1 G8A       0.653700
      7 C13         -2.7150     4.3960     7.0960 c3         1 G8A       0.145400
      8 C14         -2.6970     5.8390     7.6050 c3         1 G8A      -0.096100
      9 C16         -4.9690     4.0390     3.4530 ca         1 G8A      -0.096000
     10 C17         -5.6930     3.8820     2.2890 ca         1 G8A      -0.094000
     11 C18         -6.0170     2.6150     1.8360 ca         1 G8A      -0.117000
     12 C19         -5.6120     1.4960     2.5440 ca         1 G8A      -0.015000
     13 C24          2.0480     0.0000     1.2250 ca         1 G8A       0.720600
     14 C26          4.0070     0.0010     2.5660 c3         1 G8A       0.134700
     15 C27          1.3830     0.0000     0.0000 ca         1 G8A      -0.401600
     16 I01         -1.0600    -0.0080    -1.8070 i          1 G8A      -0.159800
     17 N03         -0.6470     0.0000     1.1570 nb         1 G8A      -0.721000
     18 N05         -0.7020    -0.0010     3.4950 ns         1 G8A      -0.537400
     19 N07         -2.7290     0.2070     4.6320 ns         1 G8A      -0.643300
     20 N23          1.3350    -0.0010     2.3450 nb         1 G8A      -0.859000
     21 O12         -3.5800     4.3030     5.9340 os         1 G8A      -0.417900
     22 O15         -3.3360     2.0980     5.9850 o          1 G8A      -0.566000
     23 O20         -4.7990     0.4220     5.9590 o          1 G8A      -0.611800
     24 O21         -4.7840    -0.9130     3.8460 o          1 G8A      -0.611800
     25 O22         -2.6390     0.1110     2.4150 o          1 G8A      -0.559100
     26 O25          3.4020     0.0000     1.2710 os         1 G8A      -0.428100
     27 S08         -4.3860     0.2140     4.6170 sy         1 G8A       1.449900
     28 H1          -1.7100     4.0960     6.8230 h1         1 G8A       0.051700
     29 H2          -3.0870     3.7420     7.8760 h1         1 G8A       0.051700
     30 H3          -2.2550     6.4810     6.8530 hc         1 G8A       0.049700
     31 H4          -2.1130     5.8940     8.5150 hc         1 G8A       0.049700
     32 H5          -3.7110     6.1640     7.8060 hc         1 G8A       0.049700
     33 H6          -4.7160     5.0310     3.8060 ha         1 G8A       0.152000
     34 H7          -6.0110     4.7530     1.7290 ha         1 G8A       0.139000
     35 H8          -6.5840     2.4980     0.9210 ha         1 G8A       0.142000
     36 H9          -5.8690     0.5070     2.1850 ha         1 G8A       0.171000
     37 H10          3.6980    -0.8840     3.1090 h1         1 G8A       0.050033
     38 H11          3.6960     0.8850     3.1100 h1         1 G8A       0.050033
     39 H12          5.0850     0.0020     2.4610 h1         1 G8A       0.050033
     40 H13          1.9370     0.0010    -0.9310 ha         1 G8A       0.168000
     41 H14         -0.2210    -0.1040     4.3670 hn         1 G8A       0.341500
     42 H15         -2.2380     0.2330     5.5030 hn         1 G8A       0.354500
@<TRIPOS>BOND
     1     7     8 1
     2     7    21 1
     3    22     6 2
     4    21     6 1
     5     6     5 1
     6    16     1 1
     7     9     5 ar
     8     9    10 ar
     9     5     4 ar
    10     1    17 ar
    11     1    15 ar
    12    17     2 ar
    13    10    11 ar
    14    18     2 1
    15    18     3 1
    16    15    13 ar
    17     2    20 ar
    18    24    27 2
    19    19     3 1
    20    19    27 1
    21     4    27 1
    22     4    12 ar
    23     3    25 2
    24    13    20 ar
    25    13    26 1
    26    27    23 2
    27    11    12 ar
    28    14    26 1
    29     7    28 1
    30     7    29 1
    31     8    30 1
    32     8    31 1
    33     8    32 1
    34     9    33 1
    35    10    34 1
    36    11    35 1
    37    12    36 1
    38    14    37 1
    39    14    38 1
    40    14    39 1
    41    15    40 1
    42    18    41 1
    43    19    42 1
@<TRIPOS>SUBSTRUCTURE
     1 G8A         1 TEMP              0 ****  ****    0 ROOT
