@<TRIPOS>MOLECULE
molecule
   42    44     1     0     0
SMALL
bcc


@<TRIPOS>ATOM
      1 O3B          0.0000     0.0000     0.0000 o          1 G8D      -0.639500
      2 PB           1.6100     0.0000     0.0000 p5         1 G8D       1.359900
      3 O2B          2.1470     0.0000     1.5180 o          1 G8D      -0.639500
      4 O1B          2.1030    -1.2080    -0.6980 o          1 G8D      -0.639500
      5 O3A          2.1470     1.3150    -0.7580 os         1 G8D      -0.716800
      6 PA           2.2370     1.7550    -2.3040 p5         1 G8D       1.445800
      7 O1A          3.4420     0.9610    -3.0190 o          1 G8D      -0.822000
      8 O2A          0.9630     1.4330    -2.9850 o          1 G8D      -0.822000
      9 O5'          2.5100     3.3400    -2.3960 os         1 G8D      -0.596200
     10 C5'          2.5390     4.0540    -3.6340 c3         1 G8D       0.233400
     11 C4'          2.8210     5.5330    -3.3620 c3         1 G8D       0.120100
     12 O4'          4.1540     5.6890    -2.8470 os         1 G8D      -0.360600
     13 C3'          2.7380     6.3320    -4.6770 c3         1 G8D       0.087100
     14 O3'          1.7230     7.3340    -4.5890 oh         1 G8D      -0.592800
     15 C2'          4.1350     6.9850    -4.8130 c3         1 G8D       0.080100
     16 O2'          4.0270     8.3310    -5.2790 oh         1 G8D      -0.590800
     17 C1'          4.6550     6.9460    -3.3490 c3         1 G8D       0.330500
     18 N9           6.1190     6.9680    -3.3210 n          1 G8D      -0.345000
     19 C8           6.9270     6.0030    -3.8010 c          1 G8D       0.797500
     20 O8           6.5540     4.9720    -4.3280 o          1 G8D      -0.641500
     21 C4           6.8990     7.9830    -2.8050 cc         1 G8D       0.276200
     22 N3           6.6170     9.1540    -2.2220 nd         1 G8D      -0.659300
     23 C2           7.5750     9.9560    -1.8100 cc         1 G8D       0.151800
     24 N2           7.2420    11.1470    -1.2170 nz         1 G8D      -0.637600
     25 N1           8.8900     9.6340    -1.9570 ns         1 G8D      -0.472400
     26 C6           9.2410     8.4640    -2.5380 c          1 G8D       0.760700
     27 O6          10.4160     8.1640    -2.6750 o          1 G8D      -0.716500
     28 C5           8.2240     7.6050    -2.9800 cd         1 G8D      -0.302600
     29 N7           8.2140     6.3580    -3.6080 ns         1 G8D      -0.418100
     30 H4           1.5820     3.9540    -4.1310 h1         1 G8D       0.037700
     31 H5           3.3180     3.6480    -4.2670 h1         1 G8D       0.037700
     32 H6           2.1050     5.9240    -2.6500 h1         1 G8D       0.070700
     33 H7           2.5510     5.6670    -5.5110 h1         1 G8D       0.052700
     34 H8           1.0850     7.1960    -5.2690 ho         1 G8D       0.392000
     35 H9           4.7710     6.3960    -5.4610 h1         1 G8D       0.076700
     36 H10          4.3070     8.3760    -6.1780 ho         1 G8D       0.388000
     37 H11          4.2450     7.7710    -2.7790 h2         1 G8D       0.086700
     38 H12          6.2450    11.2430    -1.1980 hn         1 G8D       0.394133
     39 H13          7.5960    11.1640    -0.2810 hn         1 G8D       0.394133
     40 H14          9.5980    10.2630    -1.6340 hn         1 G8D       0.291500
     41 H15          9.0180     5.8230    -3.8700 hn         1 G8D       0.353500
     42 H23          7.6430    11.9020    -1.7370 hn         1 G8D       0.394133
@<TRIPOS>BOND
     1    27    26 2
     2    25    26 1
     3    25    23 1
     4    24    23 1
     5    26    28 1
     6    23    22 2
     7    28    29 1
     8    28    21 2
     9    22    21 1
    10    29    19 1
    11    21    18 1
    12    16    15 1
    13    19    18 1
    14    19    20 2
    15    18    17 1
    16    15    17 1
    17    15    13 1
    18     7     6 1
    19    17    12 1
    20    13    14 1
    21    13    11 1
    22     6     9 1
    23     6     8 1
    24     6     5 1
    25     9    10 1
    26    12    11 1
    27     4     2 1
    28    11    10 1
    29     5     2 1
    30     1     2 1
    31     2     3 1
    32    10    30 1
    33    10    31 1
    34    11    32 1
    35    13    33 1
    36    14    34 1
    37    15    35 1
    38    16    36 1
    39    17    37 1
    40    24    38 1
    41    24    39 1
    42    25    40 1
    43    29    41 1
    44    42    24 1
@<TRIPOS>SUBSTRUCTURE
     1 G8D         1 TEMP              0 ****  ****    0 ROOT
