@<TRIPOS>MOLECULE
molecule
   44    44     1     0     0
SMALL
bcc


@<TRIPOS>ATOM
      1 S01          0.0000     0.0000     0.0000 sh         1 G8G      -0.399400
      2 C02          1.7620     0.0000     0.0000 c2         1 G8G       0.032400
      3 C03          2.5150     0.0000     1.3050 c3         1 G8G      -0.059200
      4 C04          2.7200    -1.4400     1.7770 c3         1 G8G       0.237400
      5 O05          3.4340    -1.4400     3.0150 os         1 G8G      -0.605200
      6 P06          3.8240    -2.7880     3.8020 p5         1 G8G       1.425800
      7 O07          4.7320    -2.4200     5.0800 os         1 G8G      -0.716800
      8 P08          5.7530    -3.2540     6.0050 p5         1 G8G       1.312900
      9 O09          6.6400    -4.0720     5.1480 o          1 G8G      -0.860167
     10 O10          6.6410    -2.2340     6.8780 o          1 G8G      -0.860167
     11 O11          4.9190    -4.2170     6.9890 o          1 G8G      -0.860167
     12 O12          4.5830    -3.6850     2.9010 o          1 G8G      -0.855500
     13 O13          2.4830    -3.5310     4.2930 o          1 G8G      -0.855500
     14 C14          2.4250    -0.0020    -1.1490 c2         1 G8G       0.021400
     15 C15          3.9280    -0.1030    -1.1500 c3         1 G8G      -0.042900
     16 N16          1.7280     0.0930    -2.3590 n          1 G8G      -0.404000
     17 C17          1.7160    -0.9500    -3.2120 c          1 G8G       0.655900
     18 O18          2.2280    -2.0030    -2.8910 o          1 G8G      -0.592100
     19 C19          1.0130     1.3250    -2.7000 c3         1 G8G       0.181300
     20 C20          1.9110     2.2180    -3.5170 ca         1 G8G      -0.463900
     21 C21          2.0250     2.0460    -4.8990 ca         1 G8G       0.717200
     22 N22          1.3130     1.0480    -5.5450 nv         1 G8G      -1.036500
     23 N23          2.8280     2.8540    -5.5840 nb         1 G8G      -0.815000
     24 C24          3.5070     3.8040    -4.9720 ca         1 G8G       0.626300
     25 C25          4.4060     4.7000    -5.7840 c3         1 G8G      -0.102400
     26 N26          3.4200     3.9920    -3.6710 nb         1 G8G      -0.767000
     27 C27          2.6360     3.2300    -2.9210 ca         1 G8G       0.469200
     28 H1          -0.4430     0.6150     1.0900 hs         1 G8G       0.201800
     29 H2           3.4790     0.4740     1.1660 hc         1 G8G       0.049700
     30 H3           1.9490     0.5460     2.0490 hc         1 G8G       0.049700
     31 H4           1.7560    -1.9150     1.9160 h1         1 G8G       0.030700
     32 H5           3.2870    -1.9870     1.0330 h1         1 G8G       0.030700
     33 H9           4.3450     0.7050    -0.5610 hc         1 G8G       0.056033
     34 H10          4.2270    -1.0520    -0.7230 hc         1 G8G       0.056033
     35 H11          4.2940    -0.0330    -2.1680 hc         1 G8G       0.056033
     36 H12          1.2170    -0.8610    -4.1700 h5         1 G8G      -0.001800
     37 H13          0.1270     1.0810    -3.2730 h1         1 G8G       0.047200
     38 H14          0.7240     1.8380    -1.7900 h1         1 G8G       0.047200
     39 H15          1.6840     0.6230    -6.3710 hn         1 G8G       0.429300
     40 H16          0.4090     0.7800    -5.2070 hn         1 G8G       0.429300
     41 H17          3.9380     4.9140    -6.7370 hc         1 G8G       0.037033
     42 H18          4.5720     5.6260    -5.2470 hc         1 G8G       0.037033
     43 H19          5.3550     4.2040    -5.9510 hc         1 G8G       0.037033
     44 H20          2.5720     3.3940    -1.8520 h4         1 G8G       0.024100
@<TRIPOS>BOND
     1    25    24 1
     2    26    24 ar
     3    26    27 ar
     4    24    23 ar
     5    27    20 ar
     6    23    21 ar
     7    20    21 ar
     8    20    19 1
     9    21    22 1
    10    15    14 1
    11    19    16 1
    12    14    16 1
    13    14     2 2
    14    16    17 1
    15    12     6 1
    16     5     6 1
    17     5     4 1
    18     3     2 1
    19     3     4 1
    20    13     6 1
    21     2     1 1
    22     6     7 1
    23    17    18 2
    24     7     8 1
    25     9     8 1
    26     8    10 1
    27     8    11 1
    28     1    28 1
    29     3    29 1
    30     3    30 1
    31     4    31 1
    32     4    32 1
    33    15    33 1
    34    15    34 1
    35    15    35 1
    36    17    36 1
    37    19    37 1
    38    19    38 1
    39    22    39 1
    40    22    40 1
    41    25    41 1
    42    25    42 1
    43    25    43 1
    44    27    44 1
@<TRIPOS>SUBSTRUCTURE
     1 G8G         1 TEMP              0 ****  ****    0 ROOT
