@<TRIPOS>MOLECULE
molecule
   34    36     1     0     0
SMALL
bcc


@<TRIPOS>ATOM
      1 C4           0.0000     0.0000     0.0000 ca         1 G8H      -0.292300
      2 C14          9.8740     0.5920     3.3860 ca         1 G8H      -0.116000
      3 C5           1.3810     0.0000     0.0000 ca         1 G8H       0.454200
      4 C6           3.5430     0.1100     3.4160 c          1 G8H       0.641100
      5 C11          8.5100     0.4870     3.7070 ca         1 G8H      -0.031000
      6 C7           4.3500     0.2240     4.6830 c3         1 G8H      -0.111100
      7 C8           5.8130     0.3330     4.3390 ca         1 G8H      -0.067300
      8 C9           6.5790    -0.8250     4.2290 ca         1 G8H      -0.109000
      9 C10          7.9040    -0.7620     3.9190 ca         1 G8H      -0.113000
     10 C12          7.7300     1.6650     3.8200 ca         1 G8H      -0.033000
     11 C13          6.3660     1.5610     4.1410 ca         1 G8H      -0.094000
     12 N1           2.0570     0.0000     1.1330 nb         1 G8H      -0.682000
     13 C3          -0.6790     0.0010     1.2110 ca         1 G8H      -0.066000
     14 C1           1.4460     0.0010     2.3070 ca         1 G8H       0.556200
     15 C2           0.0590    -0.0050     2.3820 ca         1 G8H      -0.300300
     16 O1           4.1010     0.1150     2.3390 o          1 G8H      -0.512100
     17 C15         10.4270     1.8200     3.1890 ca         1 G8H      -0.125000
     18 C16          9.6590     2.9790     3.2940 ca         1 G8H      -0.127000
     19 C17          8.3360     2.9160     3.6080 ca         1 G8H      -0.113000
     20 H1          -0.5480     0.0020    -0.9350 ha         1 G8H       0.138000
     21 H3           1.9150    -0.0010    -0.9420 h4         1 G8H       0.029100
     22 H4           4.0410     1.1080     5.2290 hc         1 G8H       0.064200
     23 H5           4.1870    -0.6540     5.2960 hc         1 G8H       0.064200
     24 H6           6.1150    -1.7900     4.3930 ha         1 G8H       0.128000
     25 H7           8.4870    -1.6720     3.8360 ha         1 G8H       0.133000
     26 H8           5.7870     2.4540     4.3430 ha         1 G8H       0.131000
     27 H10         -1.7620    -0.0010     1.2390 ha         1 G8H       0.137000
     28 H11         -0.4390    -0.0050     3.3450 ha         1 G8H       0.132000
     29 H12         11.4780     1.8980     2.9380 ha         1 G8H       0.127000
     30 H13         10.1240     3.9440     3.1320 ha         1 G8H       0.127000
     31 H14          7.7520     3.8240     3.6870 ha         1 G8H       0.132000
     32 N2           2.2020    -0.0000     3.4790 ns         1 G8H      -0.559400
     33 H2          10.4830    -0.3000     3.3000 ha         1 G8H       0.132000
     34 H9           1.7480    -0.0950     4.3660 hn         1 G8H       0.326500
@<TRIPOS>BOND
     1    12     3 ar
     2    12    14 ar
     3     6     4 1
     4     6     7 1
     5    32    14 1
     6    32     4 1
     7     3     1 ar
     8    14    15 ar
     9     4    16 2
    10     1    13 ar
    11    15    13 ar
    12     8     7 ar
    13     8     9 ar
    14     7    11 ar
    15     9     5 ar
    16    11    10 ar
    17     5    10 ar
    18     5     2 ar
    19    10    19 ar
    20     2    17 ar
    21    19    18 ar
    22    17    18 ar
    23     1    20 1
    24     2    33 1
    25     3    21 1
    26     6    22 1
    27     6    23 1
    28     8    24 1
    29     9    25 1
    30    11    26 1
    31    32    34 1
    32    13    27 1
    33    15    28 1
    34    17    29 1
    35    18    30 1
    36    19    31 1
@<TRIPOS>SUBSTRUCTURE
     1 G8H         1 TEMP              0 ****  ****    0 ROOT
