@<TRIPOS>MOLECULE
G8H
   34    36     1     0     0
SMALL
bcc


@<TRIPOS>ATOM
      1 C4           0.0000     0.0000     0.0000 ca         1 G8H      -0.258300
      2 C14          9.8740     0.5920     3.3860 ca         1 G8H      -0.087000
      3 C5           1.3810     0.0000     0.0000 ca         1 G8H       0.434200
      4 C6           3.5430     0.1100     3.4160 c          1 G8H       0.538100
      5 C11          8.5100     0.4870     3.7070 ca         1 G8H      -0.032000
      6 C7           4.3500     0.2240     4.6830 c3         1 G8H      -0.041100
      7 C8           5.8130     0.3330     4.3390 ca         1 G8H      -0.071300
      8 C9           6.5790    -0.8250     4.2290 ca         1 G8H      -0.083000
      9 C10          7.9040    -0.7620     3.9190 ca         1 G8H      -0.085000
     10 C12          7.7300     1.6650     3.8200 ca         1 G8H      -0.031000
     11 C13          6.3660     1.5610     4.1410 ca         1 G8H      -0.069000
     12 N1           2.0570     0.0000     1.1330 nb         1 G8H      -0.556000
     13 C3          -0.6790     0.0010     1.2110 ca         1 G8H      -0.039000
     14 C1           1.4460     0.0010     2.3070 ca         1 G8H       0.365200
     15 C2           0.0590    -0.0050     2.3820 ca         1 G8H      -0.273300
     16 O1           4.1010     0.1150     2.3390 o          1 G8H      -0.554100
     17 C15         10.4270     1.8200     3.1890 ca         1 G8H      -0.101000
     18 C16          9.6590     2.9790     3.2940 ca         1 G8H      -0.102000
     19 C17          8.3360     2.9160     3.6080 ca         1 G8H      -0.086000
     20 H1          -0.5480     0.0020    -0.9350 ha         1 G8H       0.114000
     21 H3           1.9150    -0.0010    -0.9420 h4         1 G8H      -0.017900
     22 H4           4.0410     1.1080     5.2290 hc         1 G8H       0.028700
     23 H5           4.1870    -0.6540     5.2960 hc         1 G8H       0.028700
     24 H6           6.1150    -1.7900     4.3930 ha         1 G8H       0.101000
     25 H7           8.4870    -1.6720     3.8360 ha         1 G8H       0.105000
     26 H8           5.7870     2.4540     4.3430 ha         1 G8H       0.105000
     27 H10         -1.7620    -0.0010     1.2390 ha         1 G8H       0.106000
     28 H11         -0.4390    -0.0050     3.3450 ha         1 G8H       0.113000
     29 H12         11.4780     1.8980     2.9380 ha         1 G8H       0.099000
     30 H13         10.1240     3.9440     3.1320 ha         1 G8H       0.100000
     31 H14          7.7520     3.8240     3.6870 ha         1 G8H       0.104000
     32 N2           2.2020    -0.0000     3.4790 ns         1 G8H      -0.125400
     33 H2          10.4830    -0.3000     3.3000 ha         1 G8H       0.105000
     34 H9           1.7480    -0.0950     4.3660 hn         1 G8H       0.167500
@<TRIPOS>BOND
     1     1     3 ar  
     2     1    13 ar  
     3     1    20 1   
     4     2     5 ar  
     5     2    17 ar  
     6     2    33 1   
     7     3    12 ar  
     8     3    21 1   
     9     4     6 1   
    10     4    16 2   
    11     4    32 1   
    12     5     9 ar  
    13     5    10 ar  
    14     6     7 1   
    15     6    22 1   
    16     6    23 1   
    17     7     8 ar  
    18     7    11 ar  
    19     8     9 ar  
    20     8    24 1   
    21     9    25 1   
    22    10    11 ar  
    23    10    19 ar  
    24    11    26 1   
    25    12    14 ar  
    26    13    15 ar  
    27    13    27 1   
    28    14    15 ar  
    29    14    32 1   
    30    15    28 1   
    31    17    18 ar  
    32    17    29 1   
    33    18    19 ar  
    34    18    30 1   
    35    19    31 1   
    36    32    34 1   
@<TRIPOS>SUBSTRUCTURE
     1 G8H         1 TEMP              0 ****  ****    0 ROOT
