@<TRIPOS>MOLECULE
G8J
   51    53     1     0     0
SMALL
bcc


@<TRIPOS>ATOM
      1 C4           0.0000     0.0000     0.0000 ca         1 G8J       0.517600
      2 C5           1.3960     0.0000     0.0000 ca         1 G8J      -0.340600
      3 C6           2.0610     0.0000     1.2420 ca         1 G8J       0.591200
      4 N1           1.3390     0.0010     2.3570 nb         1 G8J      -0.777000
      5 N3          -0.6430     0.0050     1.1560 nb         1 G8J      -0.741000
      6 CAJ         -1.0210    -1.4440    -1.7390 c3         1 G8J       0.013900
      7 CAI         -0.7630    -0.0010    -1.2990 c3         1 G8J      -0.086700
      8 C2           0.0150     0.0010     2.3060 ca         1 G8J       0.753900
      9 NAG         -0.7010     0.0010     3.4890 nv         1 G8J      -0.497500
     10 NAH          3.4430     0.0000     1.3000 nv         1 G8J      -0.516500
     11 CAK          2.1310    -0.0020    -1.2280 cg         1 G8J      -0.077000
     12 CAL          2.7170    -0.0050    -2.2460 c1         1 G8J      -0.135100
     13 CAM          3.7760     0.1150    -3.0100 c3         1 G8J       0.066700
     14 CAZ          3.8400    -1.0650    -3.9830 c3         1 G8J       0.020900
     15 CAN          5.1880     0.4900    -2.5350 ca         1 G8J      -0.086300
     16 CAO          5.4390    -0.6410    -1.4310 ca         1 G8J      -0.059000
     17 CAS          5.8180     1.5430    -2.7290 ca         1 G8J       0.143100
     18 OBA          5.4830     2.4390    -3.9330 os         1 G8J      -0.337900
     19 CBB          6.4150     3.5210    -4.1960 c3         1 G8J       0.247700
     20 CAR          7.1670     1.6630    -2.1370 ca         1 G8J      -0.121000
     21 CAQ          7.5150     0.8110    -1.0850 ca         1 G8J      -0.081000
     22 CAP          6.7870    -0.3230    -0.8280 cp         1 G8J      -0.076000
     23 CAT          7.0530    -1.1010     0.2520 cp         1 G8J      -0.041000
     24 CAU          6.5730    -2.4130     0.3650 ca         1 G8J      -0.214300
     25 CAV          7.0700    -3.3030     1.6320 ca         1 G8J       0.402200
     26 NAW          8.0170    -2.7710     2.3190 nb         1 G8J      -0.560000
     27 CAX          8.7010    -1.8360     1.7600 ca         1 G8J       0.402200
     28 CAY          8.2370    -0.8150     0.9500 ca         1 G8J      -0.214300
     29 H1          -0.1580    -2.0530    -1.5020 hc         1 G8J       0.004367
     30 H2          -1.1990    -1.4690    -2.8070 hc         1 G8J       0.004367
     31 H3          -1.8900    -1.8300    -1.2190 hc         1 G8J       0.004367
     32 H4          -0.1260     0.3710    -2.0930 hc         1 G8J       0.029200
     33 H5          -1.6340     0.6380    -1.2070 hc         1 G8J       0.029200
     34 H6          -1.6910     0.1450     3.4740 hn         1 G8J       0.273800
     35 H7          -0.2310    -0.1530     4.3590 hn         1 G8J       0.273800
     36 H8           3.9070    -0.1140     2.1790 hn         1 G8J       0.279800
     37 H9           3.9780     0.1440     0.4660 hn         1 G8J       0.279800
     38 H10          3.4680     0.9700    -3.6000 hc         1 G8J       0.039700
     39 H11          4.8170    -1.0950    -4.4490 hc         1 G8J       0.005367
     40 H12          3.6680    -1.9880    -3.4420 hc         1 G8J       0.005367
     41 H13          3.0790    -0.9460    -4.7450 hc         1 G8J       0.005367
     42 H14          4.8450    -1.5310    -1.2630 ha         1 G8J       0.155000
     43 H15          6.0420     4.1290    -5.0120 h1         1 G8J      -0.005300
     44 H16          6.5190     4.1320    -3.3080 h1         1 G8J      -0.005300
     45 H17          7.3800     3.1090    -4.4660 h1         1 G8J      -0.005300
     46 H18          7.7490     2.5610    -2.3060 ha         1 G8J       0.115000
     47 H19          8.4880     0.9180    -0.6210 ha         1 G8J       0.119000
     48 H20          5.7780    -2.7670    -0.2810 ha         1 G8J       0.124500
     49 H21          6.5780    -4.2270     1.9110 h4         1 G8J      -0.026900
     50 H22          9.5660    -1.5180     2.3280 h4         1 G8J      -0.026900
     51 H23          8.9340    -0.0910     0.5470 ha         1 G8J       0.124500
@<TRIPOS>BOND
     1     1     2 ar  
     2     1     5 ar  
     3     1     7 1   
     4     2     3 ar  
     5     2    11 1   
     6     3     4 ar  
     7     3    10 1   
     8     4     8 ar  
     9     5     8 ar  
    10     6     7 1   
    11     6    29 1   
    12     6    30 1   
    13     6    31 1   
    14     7    32 1   
    15     7    33 1   
    16     8     9 1   
    17     9    34 1   
    18     9    35 1   
    19    10    36 1   
    20    10    37 1   
    21    11    12 3   
    22    12    13 1   
    23    13    14 1   
    24    13    15 1   
    25    13    38 1   
    26    14    39 1   
    27    14    40 1   
    28    14    41 1   
    29    15    16 ar  
    30    15    17 ar  
    31    16    22 ar  
    32    16    42 1   
    33    17    18 1   
    34    17    20 ar  
    35    18    19 1   
    36    19    43 1   
    37    19    44 1   
    38    19    45 1   
    39    20    21 ar  
    40    20    46 1   
    41    21    22 ar  
    42    21    47 1   
    43    22    23 1   
    44    23    24 ar  
    45    23    28 ar  
    46    24    25 ar  
    47    24    48 1   
    48    25    26 ar  
    49    25    49 1   
    50    26    27 ar  
    51    27    28 ar  
    52    27    50 1   
    53    28    51 1   
@<TRIPOS>SUBSTRUCTURE
     1 G8J         1 TEMP              0 ****  ****    0 ROOT
