@<TRIPOS>MOLECULE
molecule
   83    87     1     0     0
SMALL
bcc


@<TRIPOS>ATOM
      1 Cl           0.0000     0.0000     0.0000 cl         1 G8S      -0.030400
      2 CAA          7.9490    -7.0070    16.8320 c3         1 G8S       0.073100
      3 CAB          9.2440    -9.0670    16.1990 c3         1 G8S       0.073100
      4 CAC          6.4990    -0.0450     1.8230 c3         1 G8S       0.044600
      5 CAE          2.7070     0.0000     0.0000 ca         1 G8S      -0.069000
      6 CAF          1.6430    -0.0000     2.1500 ca         1 G8S      -0.069000
      7 CAG         10.2100    -6.7470    10.0250 ca         1 G8S      -0.159500
      8 CAH          9.3670    -4.5060    10.1900 ca         1 G8S      -0.159500
      9 CAI          4.6600    -1.9620    10.3030 ca         1 G8S      -0.092000
     10 CAJ          5.5200    -2.9630     8.2990 ca         1 G8S      -0.092000
     11 CAK         11.4750    -6.2510     9.7520 ca         1 G8S      -0.050000
     12 CAL         10.6310    -4.0100     9.9170 ca         1 G8S      -0.050000
     13 CAM          4.5400    -0.7480     9.6460 ca         1 G8S      -0.137000
     14 CAN          5.4000    -1.7490     7.6410 ca         1 G8S      -0.137000
     15 CAO          3.9460     0.0000     0.6100 ca         1 G8S      -0.110000
     16 CAP          2.8800    -0.0010     2.7650 ca         1 G8S      -0.110000
     17 CAQ          9.4070    -6.5310    14.2030 cc         1 G8S      -0.186000
     18 CAR         11.1980    -6.2550    15.6930 cc         1 G8S      -0.186000
     19 CAS          5.3800     0.8730     4.3450 cc         1 G8S       0.013500
     20 CAT          3.0510     0.6510     4.1620 cc         1 G8S       0.013500
     21 CAU         10.0280    -5.6800    13.3020 cd         1 G8S      -0.064000
     22 CAV         11.8160    -5.4050    14.7900 cd         1 G8S      -0.064000
     23 CAW          5.2590     0.9880     5.7200 cd         1 G8S      -0.157000
     24 CAX          2.9340     0.7660     5.5370 cd         1 G8S      -0.157000
     25 CAY          3.7370    -6.3770    10.7670 c3         1 G8S      -0.148400
     26 CAZ          4.6730    -5.4980     9.9390 c3         1 G8S      -0.065400
     27 CBA          2.3760    -6.4610    10.0800 c3         1 G8S       0.290900
     28 CBC         13.1460    -4.4380     9.6520 c3         1 G8S       0.319100
     29 CBD          3.8880     0.8920     7.7430 c3         1 G8S       0.207100
     30 CBE          1.5560    -0.0010     0.7690 ca         1 G8S       0.015400
     31 CBF          9.1560    -5.8750    10.2440 ca         1 G8S      -0.165300
     32 CBG          5.1500    -3.0690     9.6300 ca         1 G8S      -0.094300
     33 CBH         11.6850    -4.8820     9.6980 ca         1 G8S      -0.141300
     34 CBI          4.9100    -0.6420     8.3140 ca         1 G8S      -0.068300
     35 CBJ          9.9990    -6.8090    15.3900 cc         1 G8S       0.183700
     36 CBK          4.0360    -0.0000     1.9950 ca         1 G8S      -0.014200
     37 CBL          4.2740     0.7050     3.5800 cc         1 G8S      -0.013300
     38 NBM          9.0700    -7.6260    16.1490 nh         1 G8S      -0.435100
     39 NBN          5.2870     0.0240     2.6210 nh         1 G8S      -0.219200
     40 NBO         11.2240    -5.1290    13.6070 na         1 G8S      -0.348200
     41 NBP          4.0380     0.9340     6.2990 na         1 G8S      -0.099200
     42 HAA          7.0230    -7.3260    16.3690 h1         1 G8S       0.028033
     43 HAAA         7.9530    -7.3020    17.8740 h1         1 G8S       0.028033
     44 HAAB         8.0350    -5.9290    16.7620 h1         1 G8S       0.028033
     45 HAB          8.3430    -9.5520    15.8440 h1         1 G8S       0.028033
     46 HABA         9.4400    -9.3720    17.2200 h1         1 G8S       0.028033
     47 HABB        10.0790    -9.3520    15.5710 h1         1 G8S       0.028033
     48 HAC          6.2380    -0.0790     0.7720 h1         1 G8S       0.072033
     49 HACA         7.0550    -0.9360     2.0860 h1         1 G8S       0.072033
     50 HACB         7.1080     0.8300     2.0150 h1         1 G8S       0.072033
     51 HAE          2.6350     0.0000    -1.0810 ha         1 G8S       0.178000
     52 HAF          0.7400    -0.0010     2.7490 ha         1 G8S       0.178000
     53 HAG         10.0450    -7.8170    10.0670 ha         1 G8S       0.147500
     54 HAH          8.5430    -3.8240    10.3610 ha         1 G8S       0.147500
     55 HAI          4.3710    -2.0450    11.3440 ha         1 G8S       0.157000
     56 HAJ          5.9030    -3.8290     7.7720 ha         1 G8S       0.157000
     57 HAK         12.2990    -6.9330     9.5810 ha         1 G8S       0.143500
     58 HAL         10.7960    -2.9400     9.8750 ha         1 G8S       0.143500
     59 HAM          4.1570     0.1180    10.1720 ha         1 G8S       0.147000
     60 HAN          5.6890    -1.6660     6.6000 ha         1 G8S       0.147000
     61 HAO          4.8460     0.0010     0.0070 ha         1 G8S       0.121500
     62 HAP          2.9470    -0.0000     3.8470 ha         1 G8S       0.121500
     63 HAQ          8.4480    -6.9730    13.9590 ha         1 G8S       0.148000
     64 HAR         11.6730    -6.4760    16.6410 ha         1 G8S       0.148000
     65 HAS          6.3580     0.9170     3.8820 ha         1 G8S       0.155000
     66 HAT          2.1660     0.5170     3.5520 ha         1 G8S       0.155000
     67 HAU          9.5550    -5.4580    12.3540 h4         1 G8S       0.164500
     68 HAV         12.7750    -4.9620    15.0320 h4         1 G8S       0.164500
     69 HAW          6.1430     1.1220     6.3320 h4         1 G8S       0.202500
     70 HAX          1.9570     0.7230     6.0030 h4         1 G8S       0.202500
     71 HAY          3.6180    -5.9470    11.7540 hc         1 G8S       0.114200
     72 HAYA         4.1600    -7.3710    10.8550 hc         1 G8S       0.114200
     73 HAZ          5.6230    -5.3990    10.4490 hc         1 G8S       0.098700
     74 HAZA         4.8300    -5.9520     8.9680 hc         1 G8S       0.098700
     75 HBA          2.4100    -7.2440     9.3320 hc         1 G8S       0.117200
     76 HBAA         2.1740    -5.5170     9.5880 hc         1 G8S       0.117200
     77 HBB          3.4280    -3.8850    10.6180 hc         1 G8S       0.053700
     78 HBBA         3.4360    -4.1100     8.8630 hc         1 G8S       0.053700
     79 HBC         13.3450    -3.8300    10.5260 h1         1 G8S       0.109700
     80 HBCA        13.7730    -5.3200     9.6990 h1         1 G8S       0.109700
     81 HBD          3.9550     1.6800     8.4830 h1         1 G8S       0.103700
     82 HBDA         2.8520     0.6130     7.5910 h1         1 G8S       0.103700
     83 CBB          4.0460    -4.1160     9.7590 c3         1 G8S      -0.052100
@<TRIPOS>BOND
     1     1    30 1
     2     2    38 1
     3     3    38 1
     4     4    39 1
     5     5    15 ar
     6     5    30 ar
     7     6    16 ar
     8     6    30 ar
     9     7    11 ar
    10     7    31 ar
    11     8    12 ar
    12     8    31 ar
    13     9    13 ar
    14     9    32 ar
    15    10    14 ar
    16    10    32 ar
    17    11    33 ar
    18    12    33 ar
    19    13    34 ar
    20    14    34 ar
    21    15    36 ar
    22    16    36 ar
    23    17    21 2
    24    17    35 1
    25    18    22 2
    26    18    35 1
    27    19    23 2
    28    19    37 1
    29    20    24 2
    30    20    37 1
    31    21    40 1
    32    22    40 1
    33    23    41 1
    34    24    41 1
    35    25    26 1
    36    25    27 1
    37    26    83 1
    38    27    31 1
    39    83    32 1
    40    28    33 1
    41    28    40 1
    42    29    34 1
    43    29    41 1
    44    35    38 2
    45    36    39 1
    46    37    39 2
    47     2    42 1
    48     2    43 1
    49     2    44 1
    50     3    45 1
    51     3    46 1
    52     3    47 1
    53     4    48 1
    54     4    49 1
    55     4    50 1
    56     5    51 1
    57     6    52 1
    58     7    53 1
    59     8    54 1
    60     9    55 1
    61    10    56 1
    62    11    57 1
    63    12    58 1
    64    13    59 1
    65    14    60 1
    66    15    61 1
    67    16    62 1
    68    17    63 1
    69    18    64 1
    70    19    65 1
    71    20    66 1
    72    21    67 1
    73    22    68 1
    74    23    69 1
    75    24    70 1
    76    25    71 1
    77    25    72 1
    78    26    73 1
    79    26    74 1
    80    27    75 1
    81    27    76 1
    82    83    77 1
    83    83    78 1
    84    28    79 1
    85    28    80 1
    86    29    81 1
    87    29    82 1
@<TRIPOS>SUBSTRUCTURE
     1 G8S         1 TEMP              0 ****  ****    0 ROOT
