@<TRIPOS>MOLECULE
G8S
   85    89     1     0     0
SMALL
bcc


@<TRIPOS>ATOM
      1 CL          0.1710   -0.6720    0.5230 cl        1 G8S      0.043600
      2 CAA         6.6510   24.2110    8.0970 c3        1 G8S      0.082100
      3 CAB         9.0620   24.0830    7.6090 c3        1 G8S      0.082100
      4 CAC         6.7220    0.2700    1.2520 c3        1 G8S      0.091100
      5 CAE         2.5950    0.4400    0.3310 ca        1 G8S     -0.102500
      6 CAF         2.2020   -1.0280    2.2260 ca        1 G8S     -0.102500
      7 CAG         5.8130   15.5770    5.7190 ca        1 G8S     -0.124500
      8 CAH         8.1830   15.5090    5.2520 ca        1 G8S     -0.124500
      9 CAI         5.0370    8.0320    5.0530 ca        1 G8S     -0.123500
     10 CAJ         7.4220    7.9870    4.6670 ca        1 G8S     -0.123500
     11 CAK         5.7750   16.9180    5.3470 ca        1 G8S     -0.088500
     12 CAL         8.1500   16.8500    4.8770 ca        1 G8S     -0.088500
     13 CAM         5.0720    6.6960    5.4410 ca        1 G8S     -0.090500
     14 CAN         7.4620    6.6500    5.0550 ca        1 G8S     -0.090500
     15 CAO         3.8980    0.6610    0.7610 ca        1 G8S     -0.091500
     16 CAP         3.5020   -0.8160    2.6670 ca        1 G8S     -0.091500
     17 CAQ         7.3320   22.4230    5.7130 ca        1 G8S     -0.125000
     18 CAR         7.6200   20.8660    7.5460 ca        1 G8S     -0.125000
     19 CAS         6.5800    1.1800    4.5270 ca        1 G8S     -0.124500
     20 CAT         5.4050    2.6100    2.9640 ca        1 G8S     -0.124500
     21 CAU         7.1030   21.3300    4.8670 ca        1 G8S      0.000200
     22 CAV         7.3820   19.8120    6.6440 ca        1 G8S      0.000200
     23 CAW         6.7170    2.2820    5.3800 ca        1 G8S     -0.003300
     24 CAX         5.5770    3.6770    3.8630 ca        1 G8S     -0.003300
     25 CAY         6.5900   12.5010    4.9460 c3        1 G8S     -0.075400
     26 CAZ         6.6360   11.0510    5.3860 c3        1 G8S     -0.076400
     27 CBA         7.0510   13.4190    6.0660 c3        1 G8S     -0.056100
     28 CBC         6.8720   18.9380    4.3570 c3        1 G8S      0.055600
     29 CBD         6.3560    4.6280    6.0320 c3        1 G8S      0.054600
     30 CBE         1.7380   -0.4040    1.0560 ca        1 G8S      0.075400
     31 CBF         7.0150   14.8550    5.6680 ca        1 G8S     -0.009300
     32 CBG         6.2130    8.6960    4.6720 ca        1 G8S     -0.014300
     33 CBH         6.9440   17.5640    4.9170 ca        1 G8S     -0.215300
     34 CBI         6.2880    5.9970    5.4540 ca        1 G8S     -0.205300
     35 CBJ         7.5960   22.1920    7.0780 ca        1 G8S      0.075600
     36 CBK         4.3560    0.0300    1.9320 ca        1 G8S     -0.099400
     37 CBL         5.9110    1.3420    3.2960 ca        1 G8S      0.089600
     38 NBM         7.8420   23.3110    8.0020 n4        1 G8S     -0.570800
     39 NBN         5.7530    0.1890    2.3890 n4        1 G8S     -0.433200
     40 NBO         7.1280   20.0410    5.3270 na        1 G8S      0.060900
     41 NBP         6.2220    3.5150    5.0530 na        1 G8S      0.057900
     42 HAA         6.4580   24.6950    7.1020 hx        1 G8S      0.124367
     43 HAAA        6.8670   25.0090    8.8640 hx        1 G8S      0.124367
     44 HAAB        5.7530   23.6160    8.4160 hx        1 G8S      0.124367
     45 HAB         9.9480   23.3930    7.5680 hx        1 G8S      0.124367
     46 HABA        9.2420   24.8830    8.3830 hx        1 G8S      0.124367
     47 HABB        8.9020   24.5650    6.6080 hx        1 G8S      0.124367
     48 HAC         6.4850   -0.5560    0.5240 hx        1 G8S      0.119700
     49 HACA        7.7640    0.1400    1.6520 hx        1 G8S      0.119700
     50 HACB        6.6340    1.2620    0.7380 hx        1 G8S      0.119700
     51 HAE         2.2390    0.9220   -0.5980 ha        1 G8S      0.197000
     52 HAF         1.5360   -1.7020    2.7970 ha        1 G8S      0.197000
     53 HAG         4.8880   15.0740    6.0460 ha        1 G8S      0.164500
     54 HAH         9.1360   14.9550    5.2080 ha        1 G8S      0.164500
     55 HAI         4.0780    8.5750    5.0590 ha        1 G8S      0.162500
     56 HAJ         8.3520    8.4950    4.3640 ha        1 G8S      0.162500
     57 HAK         4.8150   17.4590    5.3680 ha        1 G8S      0.145500
     58 HAL         9.0730   17.3360    4.5230 ha        1 G8S      0.145500
     59 HAM         4.1430    6.2020    5.7690 ha        1 G8S      0.144500
     60 HAN         8.4270    6.1180    5.0690 ha        1 G8S      0.144500
     61 HAO         4.5510    1.3100    0.1550 ha        1 G8S      0.157500
     62 HAP         3.8420   -1.3330    3.5810 ha        1 G8S      0.157500
     63 HAQ         7.2970   23.4400    5.2750 ha        1 G8S      0.216000
     64 HAR         7.8200   20.6050    8.6030 ha        1 G8S      0.216000
     65 HAS         7.0040    0.2120    4.8570 ha        1 G8S      0.215500
     66 HAT         4.8560    2.7950    2.0210 ha        1 G8S      0.215500
     67 HAU         6.8920   21.4850    3.7820 h4        1 G8S      0.246500
     68 HAV         7.3960   18.7480    6.9880 h4        1 G8S      0.246500
     69 HAW         7.2370    2.1780    6.3620 h4        1 G8S      0.241000
     70 HAX         5.1870    4.6970    3.6310 h4        1 G8S      0.241000
     71 HAY         5.5450   12.7730    4.6440 hc        1 G8S      0.053700
     72 HAYA        7.2470   12.6430    4.0470 hc        1 G8S      0.053700
     73 HAZ         5.9790   10.9090    6.2850 hc        1 G8S      0.053200
     74 HAZA        7.6810   10.7790    5.6890 hc        1 G8S      0.053200
     75 HBA         6.3910   13.2670    6.9630 hc        1 G8S      0.068200
     76 HBAA        8.0960   13.1370    6.3690 hc        1 G8S      0.068200
     77 HBB         6.8380   10.2780    3.3710 hc        1 G8S      0.067200
     78 HBBA        5.1320   10.4120    3.9620 hc        1 G8S      0.067200
     79 HBC         5.8410   19.1330    3.9330 h1        1 G8S      0.118700
     80 HBCA        7.6410   19.0630    3.5360 h1        1 G8S      0.118700
     81 HBD         7.3490    4.4830    6.5530 h1        1 G8S      0.116700
     82 HBDA        5.5210    4.4770    6.7820 h1        1 G8S      0.116700
     83 HBM1        8.0120   22.9140    8.9440 hn        1 G8S      0.475800
     84 HBN1        5.9820   -0.6670    2.9290 hn        1 G8S      0.474800
     85 CBB         6.1760   10.1300    4.2680 c3        1 G8S     -0.055100
@<TRIPOS>BOND
     1    1   30 1   
     2    2   38 1   
     3    2   42 1   
     4    2   43 1   
     5    2   44 1   
     6    3   38 1   
     7    3   45 1   
     8    3   46 1   
     9    3   47 1   
    10    4   39 1   
    11    4   48 1   
    12    4   49 1   
    13    4   50 1   
    14    5   15 ar  
    15    5   30 ar  
    16    5   51 1   
    17    6   16 ar  
    18    6   30 ar  
    19    6   52 1   
    20    7   11 ar  
    21    7   31 ar  
    22    7   53 1   
    23    8   12 ar  
    24    8   31 ar  
    25    8   54 1   
    26    9   13 ar  
    27    9   32 ar  
    28    9   55 1   
    29   10   14 ar  
    30   10   32 ar  
    31   10   56 1   
    32   11   33 ar  
    33   11   57 1   
    34   12   33 ar  
    35   12   58 1   
    36   13   34 ar  
    37   13   59 1   
    38   14   34 ar  
    39   14   60 1   
    40   15   36 ar  
    41   15   61 1   
    42   16   36 ar  
    43   16   62 1   
    44   17   21 ar  
    45   17   35 ar  
    46   17   63 1   
    47   18   22 ar  
    48   18   35 ar  
    49   18   64 1   
    50   19   23 ar  
    51   19   37 ar  
    52   19   65 1   
    53   20   24 ar  
    54   20   37 ar  
    55   20   66 1   
    56   21   40 2   
    57   21   67 1   
    58   22   40 1   
    59   22   68 1   
    60   23   41 2   
    61   23   69 1   
    62   24   41 1   
    63   24   70 1   
    64   25   26 1   
    65   25   27 1   
    66   25   71 1   
    67   25   72 1   
    68   26   73 1   
    69   26   74 1   
    70   26   85 1   
    71   27   31 1   
    72   27   75 1   
    73   27   76 1   
    74   28   33 1   
    75   28   40 1   
    76   28   79 1   
    77   28   80 1   
    78   29   34 1   
    79   29   41 1   
    80   29   81 1   
    81   29   82 1   
    82   32   85 1   
    83   35   38 1   
    84   36   39 1   
    85   37   39 1   
    86   38   83 1   
    87   39   84 1   
    88   77   85 1   
    89   78   85 1   
@<TRIPOS>SUBSTRUCTURE
     1 G8S         1 TEMP              0 ****  ****    0 ROOT
