@<TRIPOS>MOLECULE
molecule
   44    46     1     0     0
SMALL
bcc


@<TRIPOS>ATOM
      1 C1           0.0000     0.0000     0.0000 c3         1 G8U       0.797700
      2 F1           1.3990     0.0000     0.0000 f          1 G8U      -0.203967
      3 F2          -0.4660     0.0000     1.3180 f          1 G8U      -0.203967
      4 F3          -0.4660     1.1420    -0.6600 f          1 G8U      -0.203967
      5 C4          -0.1110    -2.3700    -0.1570 ca         1 G8U       0.157100
      6 C5          -0.5370    -3.5430    -0.7610 ca         1 G8U      -0.168000
      7 C6          -0.1580    -4.7690    -0.2350 ca         1 G8U       0.169100
      8 C7           0.6470    -4.8180     0.8940 ca         1 G8U      -0.230000
      9 C8           1.0720    -3.6480     1.4940 ca         1 G8U      -0.054000
     10 C9           0.6940    -2.4250     0.9710 ca         1 G8U      -0.237000
     11 O10         -0.5750    -5.9200    -0.8240 os         1 G8U      -0.245200
     12 C11         -0.1900    -7.0980    -0.2670 ca         1 G8U       0.099100
     13 C12         -0.9770    -7.6940     0.7070 ca         1 G8U      -0.136500
     14 C13         -0.5880    -8.8890     1.2740 ca         1 G8U      -0.098000
     15 C14          0.5990    -9.4980     0.8680 cp         1 G8U      -0.027000
     16 C15          1.3880    -8.8970    -0.1110 ca         1 G8U      -0.098000
     17 C16          0.9900    -7.7040    -0.6780 ca         1 G8U      -0.136500
     18 C17          1.0200   -10.7830     1.4760 cp         1 G8U      -0.165300
     19 C18          0.2590   -11.9460     1.2870 ca         1 G8U       0.168100
     20 C19          0.7010   -13.1250     1.8800 ca         1 G8U      -0.151900
     21 C20          1.8620   -13.1090     2.6290 ca         1 G8U       0.461600
     22 C22          2.1810   -10.8570     2.2400 ca         1 G8U       0.455600
     23 O23         -0.8770   -11.9230     0.5450 oh         1 G8U      -0.494100
     24 C24          3.0150    -9.6200     2.4510 c3         1 G8U       0.091100
     25 O25          2.5690    -8.9380     3.6240 oh         1 G8U      -0.595800
     26 Cl          -0.1980   -14.5980     1.6830 cl         1 G8U      -0.086400
     27 C27          2.3470   -14.3820     3.2730 c3         1 G8U      -0.144400
     28 N28          2.5540   -11.9960     2.7870 nb         1 G8U      -0.684000
     29 O29         -0.4750    -1.1670    -0.6740 os         1 G8U      -0.338900
     30 H5          -1.1660    -3.5010    -1.6430 ha         1 G8U       0.162000
     31 H9           1.0280    -1.5080     1.4430 ha         1 G8U       0.150000
     32 H7           0.9440    -5.7750     1.3060 ha         1 G8U       0.151000
     33 H8           1.7000    -3.6890     2.3750 ha         1 G8U       0.140000
     34 H12         -1.8990    -7.2210     1.0220 ha         1 G8U       0.148000
     35 H16          1.6020    -7.2360    -1.4390 ha         1 G8U       0.148000
     36 H13         -1.2030    -9.3540     2.0350 ha         1 G8U       0.144000
     37 H15          2.3090    -9.3680    -0.4300 ha         1 G8U       0.144000
     38 H23         -0.7850   -12.5080    -0.1890 ho         1 G8U       0.435000
     39 H271         3.2640   -14.1860     3.8150 hc         1 G8U       0.060700
     40 H272         1.5930   -14.7480     3.9600 hc         1 G8U       0.060700
     41 H273         2.5310   -15.1260     2.5080 hc         1 G8U       0.060700
     42 H241         2.9150    -8.9660     1.5930 h1         1 G8U       0.046200
     43 H242         4.0540    -9.9020     2.5700 h1         1 G8U       0.046200
     44 H25          3.3000    -8.5030     4.0320 ho         1 G8U       0.408000
@<TRIPOS>BOND
     1     1     2 1
     2     1     3 1
     3     1     4 1
     4     1    29 1
     5     5     6 ar
     6     5    10 ar
     7     5    29 1
     8     6     7 ar
     9     7     8 ar
    10     7    11 1
    11     8     9 ar
    12     9    10 ar
    13    11    12 1
    14    12    13 ar
    15    12    17 ar
    16    13    14 ar
    17    14    15 ar
    18    15    16 ar
    19    15    18 1
    20    16    17 ar
    21    18    19 ar
    22    18    22 ar
    23    19    20 ar
    24    19    23 1
    25    20    21 ar
    26    20    26 1
    27    21    27 1
    28    21    28 ar
    29    22    24 1
    30    22    28 ar
    31    24    25 1
    32     6    30 1
    33    10    31 1
    34     8    32 1
    35     9    33 1
    36    13    34 1
    37    17    35 1
    38    14    36 1
    39    16    37 1
    40    23    38 1
    41    27    39 1
    42    27    40 1
    43    27    41 1
    44    24    42 1
    45    24    43 1
    46    25    44 1
@<TRIPOS>SUBSTRUCTURE
     1 G8U         1 TEMP              0 ****  ****    0 ROOT
