@<TRIPOS>MOLECULE
G8U
   44    46     1     0     0
SMALL
bcc


@<TRIPOS>ATOM
      1 C1         -0.9640   -0.1470   -0.7260 c3        1 G8U      0.821700
      2 F1         -0.2020   -0.3640   -1.8270 f         1 G8U     -0.215300
      3 F2         -0.2630    0.6140    0.1520 f         1 G8U     -0.215300
      4 F3         -2.0930    0.5120   -1.0820 f         1 G8U     -0.215300
      5 C4         -0.4590   -2.2950    0.2140 ca        1 G8U      0.104100
      6 C5         -0.4880   -3.5060   -0.4840 ca        1 G8U     -0.128000
      7 C6          0.3720   -4.5260   -0.0490 ca        1 G8U      0.115100
      8 C7          1.2320   -4.3420    1.0410 ca        1 G8U     -0.167000
      9 C8          1.2310   -3.1200    1.7120 ca        1 G8U     -0.094000
     10 C9          0.3890   -2.0860    1.3090 ca        1 G8U     -0.153000
     11 O10         0.3760   -5.6720   -0.8370 os        1 G8U     -0.245200
     12 C11         0.6060   -6.8820   -0.1870 ca        1 G8U      0.107100
     13 C12         0.1140   -7.1690    1.0910 ca        1 G8U     -0.158500
     14 C13         0.3060   -8.4430    1.6210 ca        1 G8U     -0.085000
     15 C14         0.9820   -9.4250    0.8840 cp        1 G8U     -0.049000
     16 C15         1.4590   -9.1220   -0.3990 ca        1 G8U     -0.085000
     17 C16         1.2840   -7.8520   -0.9400 ca        1 G8U     -0.158500
     18 C17         1.1690  -10.7650    1.4400 cp        1 G8U     -0.173300
     19 C18         0.4260  -11.8570    0.9340 ca        1 G8U      0.187100
     20 C19         0.6030  -13.1370    1.4920 ca        1 G8U     -0.206900
     21 C20         1.5330  -13.2970    2.5490 ca        1 G8U      0.477600
     22 C22         2.0780  -11.0300    2.4900 ca        1 G8U      0.421600
     23 O23        -0.4380  -11.5950   -0.0940 oh        1 G8U     -0.473100
     24 C24         2.9400   -9.9070    3.0340 c3        1 G8U      0.082100
     25 O25         2.9550   -9.8360    4.4410 oh        1 G8U     -0.588800
     26 CL         -0.2850  -14.4620    0.9100 cl        1 G8U     -0.075400
     27 C27         1.7270  -14.6510    3.1540 c3        1 G8U     -0.156400
     28 N28         2.2550  -12.2610    3.0240 nb        1 G8U     -0.700000
     29 O29        -1.4140   -1.3390   -0.1380 os        1 G8U     -0.369900
     30 H5         -1.1600   -3.6590   -1.3410 ha        1 G8U      0.172000
     31 H9          0.3850   -1.1180    1.8320 ha        1 G8U      0.158000
     32 H7          1.8960   -5.1580    1.3610 ha        1 G8U      0.154000
     33 H8          1.9050   -2.9700    2.5700 ha        1 G8U      0.146000
     34 H12        -0.4210   -6.3990    1.6650 ha        1 G8U      0.152500
     35 H16         1.6520   -7.6060   -1.9460 ha        1 G8U      0.152500
     36 H13        -0.0800   -8.6800    2.6240 ha        1 G8U      0.145500
     37 H15         1.9720   -9.8990   -0.9880 ha        1 G8U      0.145500
     38 H23        -0.9120  -12.4140   -0.3180 ho        1 G8U      0.435000
     39 H271        2.4870  -14.6420    3.9730 hc        1 G8U      0.063700
     40 H272        0.7550  -15.0110    3.5730 hc        1 G8U      0.063700
     41 H273        2.0640  -15.3650    2.3620 hc        1 G8U      0.063700
     42 H241        3.9840  -10.0360    2.6340 h1        1 G8U      0.064700
     43 H242        2.5320   -8.9100    2.7110 h1        1 G8U      0.064700
     44 H25         3.3160  -10.6650    4.7810 ho        1 G8U      0.417000
@<TRIPOS>BOND
     1    1    2 1   
     2    1    3 1   
     3    1    4 1   
     4    1   29 1   
     5    5    6 ar  
     6    5   10 ar  
     7    5   29 1   
     8    6    7 ar  
     9    6   30 1   
    10    7    8 ar  
    11    7   11 1   
    12    8    9 ar  
    13    8   32 1   
    14    9   10 ar  
    15    9   33 1   
    16   10   31 1   
    17   11   12 1   
    18   12   13 ar  
    19   12   17 ar  
    20   13   14 ar  
    21   13   34 1   
    22   14   15 ar  
    23   14   36 1   
    24   15   16 ar  
    25   15   18 1   
    26   16   17 ar  
    27   16   37 1   
    28   17   35 1   
    29   18   19 ar  
    30   18   22 ar  
    31   19   20 ar  
    32   19   23 1   
    33   20   21 ar  
    34   20   26 1   
    35   21   27 1   
    36   21   28 ar  
    37   22   24 1   
    38   22   28 ar  
    39   23   38 1   
    40   24   25 1   
    41   24   42 1   
    42   24   43 1   
    43   25   44 1   
    44   27   39 1   
    45   27   40 1   
    46   27   41 1   
@<TRIPOS>SUBSTRUCTURE
     1 G8U         1 TEMP              0 ****  ****    0 ROOT
