@<TRIPOS>MOLECULE
G8V
   33    34     1     0     0
SMALL
bcc


@<TRIPOS>ATOM
      1 CAA          0.0000     0.0000     0.0000 c3         1 G8V       0.012600
      2 CAB          2.1960     0.0000     1.2700 c3         1 G8V       0.012600
      3 CAG          6.9240     2.4160    -5.8080 ca         1 G8V      -0.085500
      4 CAH          4.8610     3.6310    -5.9740 ca         1 G8V      -0.085500
      5 CAK          6.2650     1.3870    -5.1540 ca         1 G8V      -0.072500
      6 CAL          4.2030     2.6030    -5.3190 ca         1 G8V      -0.072500
      7 CAQ          1.4830     0.0000    -2.4220 cc         1 G8V      -0.238100
      8 CAR          3.4510     0.4280    -1.2190 cc         1 G8V      -0.238100
      9 CAU          2.1970     0.0230    -3.6020 cd         1 G8V      -0.065000
     10 CAV          4.1650     0.4500    -2.4070 cd         1 G8V      -0.065000
     11 CBC          4.2640    -0.0670    -4.7940 c3         1 G8V       0.165100
     12 CBF          6.2220     3.5370    -6.2180 ca         1 G8V      -0.050000
     13 CBH          4.9050     1.4810    -4.9090 ca         1 G8V      -0.217300
     14 CBJ          2.1180     0.2030    -1.2420 cc         1 G8V       0.259900
     15 NBM          1.4640     0.0000     0.0000 nh         1 G8V       0.063900
     16 NBO          3.5290     0.2480    -3.5820 na         1 G8V       0.153800
     17 HAA         -0.3610     0.8540    -0.5600 h1         1 G8V       0.026533
     18 HAAA        -0.3610    -0.9120    -0.4590 h1         1 G8V       0.026533
     19 HAAB        -0.3610     0.0580     1.0200 h1         1 G8V       0.026533
     20 HAB          2.6150     0.9830     1.4460 h1         1 G8V       0.026533
     21 HABA         1.5190    -0.2530     2.0770 h1         1 G8V       0.026533
     22 HABB         2.9950    -0.7310     1.2270 h1         1 G8V       0.026533
     23 HAH          4.3120     4.5080    -6.2940 ha         1 G8V       0.121000
     24 HAK          6.8140     0.5100    -4.8330 ha         1 G8V       0.104500
     25 HAL          3.1390     2.6760    -5.1280 ha         1 G8V       0.104500
     26 HAQ          0.4140    -0.1800    -2.4390 ha         1 G8V       0.156500
     27 HAR          3.9610     0.5900    -0.2770 ha         1 G8V       0.156500
     28 HAU          1.6890    -0.1380    -4.5450 h4         1 G8V       0.166500
     29 HAV          5.2330     0.6300    -2.3920 h4         1 G8V       0.166500
     30 HBC          3.5990    -0.2970    -5.6180 h1         1 G8V       0.070700
     31 HBCA         5.0310    -0.8180    -4.6520 h1         1 G8V       0.070700
     32 HBF          6.7370     4.3420    -6.7300 ha         1 G8V       0.120000
     33 HAG          7.9880     2.3430    -6.0000 ha         1 G8V       0.121000
@<TRIPOS>BOND
     1     1    15 1   
     2     1    17 1   
     3     1    18 1   
     4     1    19 1   
     5     2    15 1   
     6     2    20 1   
     7     2    21 1   
     8     2    22 1   
     9     3     5 ar  
    10     3    12 ar  
    11     3    33 1   
    12     4     6 ar  
    13     4    12 ar  
    14     4    23 1   
    15     5    13 ar  
    16     5    24 1   
    17     6    13 ar  
    18     6    25 1   
    19     7     9 2   
    20     7    14 1   
    21     7    26 1   
    22     8    10 2   
    23     8    14 1   
    24     8    27 1   
    25     9    16 1   
    26     9    28 1   
    27    10    16 1   
    28    10    29 1   
    29    11    13 1   
    30    11    16 1   
    31    11    30 1   
    32    11    31 1   
    33    12    32 1   
    34    14    15 2   
@<TRIPOS>SUBSTRUCTURE
     1 G8V         1 TEMP              0 ****  ****    0 ROOT
