@<TRIPOS>MOLECULE
molecule
   33    34     1     0     0
SMALL
bcc


@<TRIPOS>ATOM
      1 CAA          0.0000     0.0000     0.0000 c3         1 G8V       0.028100
      2 CAB          2.1960     0.0000     1.2700 c3         1 G8V       0.028100
      3 CAG          6.9240     2.4160    -5.8080 ca         1 G8V      -0.114000
      4 CAH          4.8610     3.6310    -5.9740 ca         1 G8V      -0.114000
      5 CAK          6.2650     1.3870    -5.1540 ca         1 G8V      -0.111000
      6 CAL          4.2030     2.6030    -5.3190 ca         1 G8V      -0.111000
      7 CAQ          1.4830     0.0000    -2.4220 cc         1 G8V      -0.217000
      8 CAR          3.4510     0.4280    -1.2190 cc         1 G8V      -0.217000
      9 CAU          2.1970     0.0230    -3.6020 cd         1 G8V       0.025500
     10 CAV          4.1650     0.4500    -2.4070 cd         1 G8V       0.025500
     11 CBC          4.2640    -0.0670    -4.7940 c3         1 G8V       0.232100
     12 CBF          6.2220     3.5370    -6.2180 ca         1 G8V      -0.091000
     13 CBH          4.9050     1.4810    -4.9090 ca         1 G8V      -0.171300
     14 CBJ          2.1180     0.2030    -1.2420 cc         1 G8V       0.246700
     15 NBM          1.4640     0.0000     0.0000 nh         1 G8V      -0.299100
     16 NBO          3.5290     0.2480    -3.5820 na         1 G8V      -0.215200
     17 HAA         -0.3610     0.8540    -0.5600 h1         1 G8V       0.060367
     18 HAAA        -0.3610    -0.9120    -0.4590 h1         1 G8V       0.060367
     19 HAAB        -0.3610     0.0580     1.0200 h1         1 G8V       0.060367
     20 HAB          2.6150     0.9830     1.4460 h1         1 G8V       0.060367
     21 HABA         1.5190    -0.2530     2.0770 h1         1 G8V       0.060367
     22 HABB         2.9950    -0.7310     1.2270 h1         1 G8V       0.060367
     23 HAH          4.3120     4.5080    -6.2940 ha         1 G8V       0.152500
     24 HAK          6.8140     0.5100    -4.8330 ha         1 G8V       0.131500
     25 HAL          3.1390     2.6760    -5.1280 ha         1 G8V       0.131500
     26 HAQ          0.4140    -0.1800    -2.4390 ha         1 G8V       0.186000
     27 HAR          3.9610     0.5900    -0.2770 ha         1 G8V       0.186000
     28 HAU          1.6890    -0.1380    -4.5450 h4         1 G8V       0.203000
     29 HAV          5.2330     0.6300    -2.3920 h4         1 G8V       0.203000
     30 HBC          3.5990    -0.2970    -5.6180 h1         1 G8V       0.105700
     31 HBCA         5.0310    -0.8180    -4.6520 h1         1 G8V       0.105700
     32 HBF          6.7370     4.3420    -6.7300 ha         1 G8V       0.154000
     33 HAG          7.9880     2.3430    -6.0000 ha         1 G8V       0.152500
@<TRIPOS>BOND
     1     1    15 1
     2     2    15 1
     3     3     5 ar
     4     3    12 ar
     5     4     6 ar
     6     4    12 ar
     7     5    13 ar
     8     6    13 ar
     9     7     9 2
    10     7    14 1
    11     8    10 2
    12     8    14 1
    13     9    16 1
    14    10    16 1
    15    11    13 1
    16    11    16 1
    17    14    15 2
    18     1    17 1
    19     1    18 1
    20     1    19 1
    21     2    20 1
    22     2    21 1
    23     2    22 1
    24     3    33 1
    25     4    23 1
    26     5    24 1
    27     6    25 1
    28     7    26 1
    29     8    27 1
    30     9    28 1
    31    10    29 1
    32    11    30 1
    33    11    31 1
    34    12    32 1
@<TRIPOS>SUBSTRUCTURE
     1 G8V         1 TEMP              0 ****  ****    0 ROOT
