@<TRIPOS>MOLECULE
molecule
   48    48     1     0     0
SMALL
bcc


@<TRIPOS>ATOM
      1 OBA          0.0000     0.0000     0.0000 o          1 G8W      -0.888800
      2 CAZ          1.3420     0.0000     0.0000 c          1 G8W       0.891600
      3 OBB          1.9470     0.0000     1.0460 o          1 G8W      -0.888800
      4 CAY          2.0950     0.0010    -1.3050 c3         1 G8W      -0.183400
      5 CAX          3.6000     0.0010    -1.0260 c3         1 G8W      -0.058400
      6 CAT          4.3640     0.0020    -2.3520 c3         1 G8W       0.023700
      7 CAU          5.8410     0.1260    -2.0800 c          1 G8W       0.892600
      8 OAW          6.5980    -0.7430    -2.4460 o          1 G8W      -0.876800
      9 OAV          6.3150     1.2010    -1.4310 o          1 G8W      -0.876800
     10 NAS          4.1030    -1.2500    -3.0670 ns         1 G8W      -0.565900
     11 CAA          4.2220    -1.2970    -4.4090 c          1 G8W       0.801100
     12 OBD          4.5480    -0.3010    -5.0250 o          1 G8W      -0.681100
     13 N            3.9820    -2.4480    -5.0670 ns         1 G8W      -0.594900
     14 CA           4.1120    -2.4990    -6.5250 c3         1 G8W       0.037700
     15 C            2.8270    -2.0360    -7.1600 c          1 G8W       0.883600
     16 O            1.8970    -1.6980    -6.4670 o          1 G8W      -0.855800
     17 OXT          2.7140    -2.0000    -8.4970 o          1 G8W      -0.855800
     18 CB           4.4080    -3.9360    -6.9600 c3         1 G8W      -0.077400
     19 CAL          5.7720    -4.3630    -6.4170 c3         1 G8W      -0.074400
     20 CAK          6.0680    -5.8000    -6.8520 c3         1 G8W      -0.154400
     21 CAB          7.4120    -6.2200    -6.3160 c          1 G8W       0.647100
     22 OBC          8.0700    -5.4480    -5.6530 o          1 G8W      -0.559100
     23 NAJ          7.8840    -7.4560    -6.5770 ns         1 G8W      -0.496100
     24 CAD          9.1740    -7.8140    -6.1630 ca         1 G8W      -0.057700
     25 CAC          9.6940    -7.3250    -4.9660 ca         1 G8W      -0.069000
     26 CAE         10.9720    -7.7070    -4.5990 ca         1 G8W      -0.257300
     27 CAG         11.6890    -8.5550    -5.4280 ca         1 G8W       0.591500
     28 FAI         12.9380    -8.9320    -5.0760 f          1 G8W      -0.241200
     29 NAH         11.1670    -9.0010    -6.5550 nb         1 G8W      -0.727000
     30 CAF          9.9510    -8.6650    -6.9370 ca         1 G8W       0.395200
     31 H2           1.8330     0.8850    -1.8730 hc         1 G8W       0.033200
     32 H3           1.8340    -0.8840    -1.8730 hc         1 G8W       0.033200
     33 H4           3.8620    -0.8840    -0.4590 hc         1 G8W       0.047700
     34 H5           3.8610     0.8850    -0.4580 hc         1 G8W       0.047700
     35 H6           4.0370     0.8380    -2.9570 h1         1 G8W       0.069700
     36 H8           3.8720    -2.0790    -2.5560 hn         1 G8W       0.283500
     37 H9           3.6730    -3.2570    -4.5640 hn         1 G8W       0.277500
     38 H10          4.9230    -1.8530    -6.8380 h1         1 G8W       0.076700
     39 H12          3.6420    -4.5960    -6.5710 hc         1 G8W       0.036700
     40 H13          4.4160    -3.9910    -8.0420 hc         1 G8W       0.036700
     41 H14          5.7640    -4.3080    -5.3350 hc         1 G8W       0.068700
     42 H15          6.5380    -3.7040    -6.8060 hc         1 G8W       0.068700
     43 H16          6.0760    -5.8560    -7.9340 hc         1 G8W       0.052200
     44 H17          5.3020    -6.4600    -6.4630 hc         1 G8W       0.052200
     45 H18          7.3000    -8.1300    -7.0310 hn         1 G8W       0.318500
     46 H19          9.1110    -6.6630    -4.3380 ha         1 G8W       0.199000
     47 H20         11.4080    -7.3460    -3.6750 ha         1 G8W       0.154000
     48 H21          9.5560    -9.0510    -7.8690 h4         1 G8W       0.019100
@<TRIPOS>BOND
     1    26    25 ar
     2    26    27 ar
     3     8     7 1
     4    28    27 1
     5     3     2 1
     6    25    24 ar
     7    27    29 ar
     8     7     9 1
     9     7     6 1
    10     2     1 1
    11     2     4 1
    12    24    23 1
    13    24    30 ar
    14     4     5 1
    15    29    30 ar
    16     5     6 1
    17    23    21 1
    18     6    10 1
    19    21    20 1
    20    21    22 2
    21    12    11 2
    22    10    11 1
    23    20    19 1
    24    11    13 1
    25    18    19 1
    26    18    14 1
    27    13    14 1
    28    14    15 1
    29    15    16 1
    30    15    17 1
    31     4    31 1
    32     4    32 1
    33     5    33 1
    34     5    34 1
    35     6    35 1
    36    10    36 1
    37    13    37 1
    38    14    38 1
    39    18    39 1
    40    18    40 1
    41    19    41 1
    42    19    42 1
    43    20    43 1
    44    20    44 1
    45    23    45 1
    46    25    46 1
    47    26    47 1
    48    30    48 1
@<TRIPOS>SUBSTRUCTURE
     1 G8W         1 TEMP              0 ****  ****    0 ROOT
