@<TRIPOS>MOLECULE
molecule
   52    54     1     0     0
SMALL
bcc


@<TRIPOS>ATOM
      1 N1          -1.3010     0.0170    -2.2130 n1         1 G90      -0.369800
      2 C12         -0.7200     0.0000    -1.2370 cg         1 G90       0.254800
      3 C7           0.0000     0.0000     0.0000 ca         1 G90      -0.053000
      4 C6           1.4020     0.0000     0.0000 ca         1 G90       0.183100
      5 C11          2.0900     0.0000     1.2040 ca         1 G90      -0.227000
      6 C10          1.3940     0.0020     2.3980 ca         1 G90      -0.067000
      7 C9           0.0100     0.0030     2.4030 ca         1 G90      -0.173000
      8 C8          -0.6900     0.0070     1.2150 ca         1 G90      -0.054000
      9 O2           2.0840    -0.0020    -1.1740 os         1 G90      -0.317900
     10 C5           3.5100    -0.0030    -1.0950 c3         1 G90       0.116400
     11 C4           4.0980    -0.0050    -2.5090 c3         1 G90       0.148100
     12 O1           3.7570     1.2150    -3.1680 oh         1 G90      -0.604800
     13 C3           5.6210    -0.1330    -2.4270 c3         1 G90       0.150800
     14 N            6.1860    -0.1340    -3.7820 n7         1 G90      -0.813200
     15 CA           7.6490    -0.2540    -3.7440 c3         1 G90       0.173200
     16 C1           8.2370     0.9270    -2.9680 c3         1 G90      -0.106600
     17 C2           8.0350    -1.5630    -3.0490 c3         1 G90      -0.106600
     18 CB           8.2000    -0.2530    -5.1710 c3         1 G90       0.009800
     19 CG           9.7010    -0.3770    -5.1300 cc         1 G90      -0.151400
     20 CD2         10.4710    -1.6200    -5.0430 ca         1 G90      -0.099800
     21 CE3         10.1280    -2.9710    -4.9730 ca         1 G90      -0.080000
     22 CZ3         11.1100    -3.9180    -4.8970 ca         1 G90      -0.158000
     23 CH2         12.4480    -3.5460    -4.8890 ca         1 G90      -0.108000
     24 CZ2         12.8090    -2.2190    -4.9580 ca         1 G90      -0.144000
     25 CE2         11.8250    -1.2380    -5.0340 ca         1 G90      -0.039200
     26 NE1         11.8600     0.1360    -5.1120 na         1 G90      -0.182400
     27 CD1         10.5870     0.6310    -5.1750 cd         1 G90      -0.100100
     28 H8          -1.7730     0.0080     1.2240 ha         1 G90       0.146000
     29 H11          3.1730    -0.0000     1.2090 ha         1 G90       0.142000
     30 H10          1.9360     0.0000     3.3360 ha         1 G90       0.135000
     31 H9          -0.5250     0.0060     3.3440 ha         1 G90       0.139000
     32 H51C         3.8430     0.8820    -0.5670 h1         1 G90       0.046700
     33 H52C         3.8420    -0.8870    -0.5640 h1         1 G90       0.046700
     34 H4           3.6950    -0.8420    -3.0660 h1         1 G90       0.061700
     35 H1           3.1170     1.0420    -3.8380 ho         1 G90       0.416000
     36 H31C         5.8800    -1.0580    -1.9270 h1         1 G90       0.045200
     37 H32C         6.0240     0.7040    -1.8690 h1         1 G90       0.045200
     38 H            5.9320     0.7130    -4.2500 hn         1 G90       0.365800
     39 H11C         9.3190     0.8720    -2.9920 hc         1 G90       0.041200
     40 H12C         7.8960     0.8900    -1.9410 hc         1 G90       0.041200
     41 H13C         7.9130     1.8550    -3.4240 hc         1 G90       0.041200
     42 H21C         7.6560    -1.5580    -2.0340 hc         1 G90       0.041200
     43 H22C         7.6080    -2.3980    -3.5900 hc         1 G90       0.041200
     44 H23C         9.1140    -1.6570    -3.0310 hc         1 G90       0.041200
     45 HB1C         7.7830    -1.0890    -5.7200 hc         1 G90       0.053700
     46 HB2C         7.9270     0.6730    -5.6630 hc         1 G90       0.053700
     47 HD1         10.3310     1.6810    -5.2520 h4         1 G90       0.166000
     48 HE3          9.0860    -3.2680    -4.9790 ha         1 G90       0.134000
     49 HZ3         10.8420    -4.9660    -4.8430 ha         1 G90       0.129000
     50 HH2         13.2150    -4.3090    -4.8290 ha         1 G90       0.130000
     51 HZ2         13.8550    -1.9390    -4.9510 ha         1 G90       0.125000
     52 HE1         12.6940     0.6900    -5.1280 hn         1 G90       0.295700
@<TRIPOS>BOND
     1     1     2 3
     2     2     3 1
     3     3     4 ar
     4     3     8 ar
     5     4     5 ar
     6     4     9 1
     7     5     6 ar
     8     6     7 ar
     9     7     8 ar
    10     9    10 1
    11    10    11 1
    12    11    12 1
    13    11    13 1
    14    13    14 1
    15    14    15 1
    16    15    16 1
    17    15    17 1
    18    15    18 1
    19    18    19 1
    20    19    20 1
    21    19    27 2
    22    20    21 ar
    23    20    25 ar
    24    21    22 ar
    25    22    23 ar
    26    23    24 ar
    27    24    25 ar
    28    25    26 1
    29    26    27 1
    30     8    28 1
    31     5    29 1
    32     6    30 1
    33     7    31 1
    34    10    32 1
    35    10    33 1
    36    11    34 1
    37    12    35 1
    38    13    36 1
    39    13    37 1
    40    14    38 1
    41    16    39 1
    42    16    40 1
    43    16    41 1
    44    17    42 1
    45    17    43 1
    46    17    44 1
    47    18    45 1
    48    18    46 1
    49    27    47 1
    50    21    48 1
    51    22    49 1
    52    23    50 1
    53    24    51 1
    54    26    52 1
@<TRIPOS>SUBSTRUCTURE
     1 G90         1 TEMP              0 ****  ****    0 ROOT
