@<TRIPOS>MOLECULE
G93
   58    61     1     0     0
SMALL
bcc


@<TRIPOS>ATOM
      1 C3          2.0500    0.4300    4.3610 cg        1 G93     -0.196000
      2 N2         -0.2730    0.1520    0.2540 na        1 G93     -0.116300
      3 N3          1.7040   -0.2080    1.4030 nc        1 G93     -0.557100
      4 C2          0.8350    0.6490    3.6710 ca        1 G93      0.581300
      5 N1         -0.2300    1.1670    4.3180 nb        1 G93     -0.646000
      6 C1          0.7590    0.3180    2.2860 ca        1 G93     -0.017900
      7 C17         3.2080   -0.8930   -1.2150 cc        1 G93      0.505900
      8 N5          3.3470   -1.4590   -2.4520 nd        1 G93     -0.438300
      9 O3          2.1120   -1.6730   -2.9250 os        1 G93      0.130600
     10 N4          1.1480   -1.3090   -2.0980 nc        1 G93     -0.316300
     11 C16         1.7200   -0.8050   -0.9910 cd        1 G93      0.178700
     12 C15         1.0710   -0.3030    0.2050 cd        1 G93      0.379800
     13 C13        -1.2640    0.1610   -0.7910 c3        1 G93      0.033300
     14 C14        -2.0330   -1.1400   -0.9620 c3        1 G93     -0.117100
     15 C4          3.0860    0.2430    4.9300 c1        1 G93     -0.117100
     16 C5          4.3450    0.0060    5.6180 c3        1 G93      0.235900
     17 C7          4.4110    0.8520    6.8910 c3        1 G93     -0.101100
     18 C6          4.5010   -1.4780    5.9530 c3        1 G93     -0.101100
     19 O1          5.4520    0.3240    4.7690 oh        1 G93     -0.591800
     20 C12        -0.4920    0.5410    1.5770 ca        1 G93     -0.058200
     21 C9         -1.5810    1.0930    2.2790 ca        1 G93     -0.003200
     22 C8         -1.3790    1.3780    3.6400 ca        1 G93      0.376200
     23 C10        -3.9030    0.7230    2.0780 c3        1 G93      0.135400
     24 C11        -5.0950    1.3280    1.3450 c3        1 G93     -0.106700
     25 C18        -4.9140    1.1840   -0.1770 c3        1 G93      0.156800
     26 N7         -6.1350    1.0890   -0.9470 n3        1 G93     -0.796200
     27 C19        -6.9770   -0.0200   -0.5330 c3        1 G93      0.150800
     28 C20        -6.8120   -0.4670    0.9220 c3        1 G93     -0.107400
     29 C21        -6.3870    0.6750    1.8200 c3        1 G93     -0.077400
     30 HN6         3.9490   -0.2840    0.5660 hn        1 G93      0.443300
     31 HN6A        5.1190   -0.6830   -0.5850 hn        1 G93      0.443300
     32 H13        -2.0000    0.9850   -0.5400 h1        1 G93      0.081200
     33 H13A       -0.7550    0.4300   -1.7600 h1        1 G93      0.081200
     34 H14        -1.3580   -1.9950   -1.1980 hc        1 G93      0.052700
     35 H14A       -2.6110   -1.3860   -0.0380 hc        1 G93      0.052700
     36 H14B       -2.7520   -1.0090   -1.8080 hc        1 G93      0.052700
     37 H7          4.2970    1.9350    6.6460 hc        1 G93      0.051033
     38 H7A         5.3990    0.6960    7.3850 hc        1 G93      0.051033
     39 H7B         3.5970    0.5520    7.5910 hc        1 G93      0.051033
     40 H6          3.6660   -1.8010    6.6160 hc        1 G93      0.051033
     41 H6A         5.4760   -1.6370    6.4730 hc        1 G93      0.051033
     42 H6B         4.4900   -2.0840    5.0170 hc        1 G93      0.051033
     43 HO1         5.3820    1.2600    4.5490 ho        1 G93      0.405000
     44 H8         -2.2000    1.8150    4.2390 h4        1 G93      0.034100
     45 H10        -3.7860   -0.3660    1.8370 h1        1 G93      0.042200
     46 H10A       -4.0050    0.8560    3.1860 h1        1 G93      0.042200
     47 H11        -5.1310    2.4250    1.5960 hc        1 G93      0.063700
     48 H18        -4.3220    2.0640   -0.5530 h1        1 G93      0.057700
     49 H18A       -4.3080    0.2550   -0.3860 h1        1 G93      0.057700
     50 HN7        -6.6450    1.9510   -0.8740 hn        1 G93      0.351800
     51 H19        -8.0540    0.2480   -0.7200 h1        1 G93      0.048200
     52 H19A       -6.7260   -0.8900   -1.2040 h1        1 G93      0.048200
     53 H20        -7.7790   -0.8970    1.2880 hc        1 G93      0.046700
     54 H20A       -6.0410   -1.2800    0.9740 hc        1 G93      0.046700
     55 H21        -7.1990    1.4510    1.8350 hc        1 G93      0.046200
     56 H21A       -6.2690    0.3030    2.8710 hc        1 G93      0.046200
     57 O2         -2.7390    1.4340    1.6120 os        1 G93     -0.337900
     58 N6          4.1840   -0.4010   -0.3940 nh        1 G93     -0.914500
@<TRIPOS>BOND
     1    1    4 1   
     2    1   15 3   
     3    2   12 1   
     4    2   13 1   
     5    2   20 1   
     6    3    6 1   
     7    3   12 2   
     8    4    5 ar  
     9    4    6 ar  
    10    5   22 ar  
    11    6   20 ar  
    12    7    8 2   
    13    7   11 1   
    14    7   58 1   
    15    8    9 1   
    16    9   10 1   
    17   10   11 2   
    18   11   12 1   
    19   13   14 1   
    20   13   32 1   
    21   13   33 1   
    22   14   34 1   
    23   14   35 1   
    24   14   36 1   
    25   15   16 1   
    26   16   17 1   
    27   16   18 1   
    28   16   19 1   
    29   17   37 1   
    30   17   38 1   
    31   17   39 1   
    32   18   40 1   
    33   18   41 1   
    34   18   42 1   
    35   19   43 1   
    36   20   21 ar  
    37   21   22 ar  
    38   21   57 1   
    39   22   44 1   
    40   23   24 1   
    41   23   45 1   
    42   23   46 1   
    43   23   57 1   
    44   24   25 1   
    45   24   29 1   
    46   24   47 1   
    47   25   26 1   
    48   25   48 1   
    49   25   49 1   
    50   26   27 1   
    51   26   50 1   
    52   27   28 1   
    53   27   51 1   
    54   27   52 1   
    55   28   29 1   
    56   28   53 1   
    57   28   54 1   
    58   29   55 1   
    59   29   56 1   
    60   30   58 1   
    61   31   58 1   
@<TRIPOS>SUBSTRUCTURE
     1 G93         1 TEMP              0 ****  ****    0 ROOT
