@<TRIPOS>MOLECULE
molecule
   51    53     1     0     0
SMALL
bcc


@<TRIPOS>ATOM
      1 N1           0.0000     0.0000     0.0000 na         1 G94      -0.677600
      2 C2           1.3580     0.0000     0.0000 cc         1 G94       0.593100
      3 N3           2.0710     0.0000     1.1060 nd         1 G94      -0.697100
      4 C4           1.4820     0.0000     2.3130 c          1 G94       0.738100
      5 N5          -2.0170     0.0050     1.5010 na         1 G94      -0.154100
      6 C6          -2.1750     0.0030     2.8630 cd         1 G94      -0.066600
      7 C7          -0.9660     0.0010     3.4520 cc         1 G94      -0.120000
      8 C8           0.0200     0.0010     2.3760 cc         1 G94      -0.239600
      9 C9          -0.6980    -0.0000     1.1830 cd         1 G94       0.105300
     10 O10          2.1520    -0.0020     3.3340 o          1 G94      -0.517100
     11 N11          2.0130    -0.0000    -1.2020 nz         1 G94      -0.719600
     12 S12         -6.5270    -3.8790     4.0160 ss         1 G94      -0.080800
     13 C13         -6.4430    -5.1840     5.1910 cc         1 G94      -0.043700
     14 C14         -5.7250    -4.7630     6.2750 cd         1 G94      -0.126000
     15 C15         -5.2740    -3.4700     6.1600 cd         1 G94      -0.157000
     16 C16         -5.6090    -2.8510     5.0220 cc         1 G94      -0.110400
     17 O18         -6.9260    -7.3420     5.9140 o          1 G94      -0.614100
     18 N19         -7.7340    -6.8090     3.9140 ns         1 G94      -0.523900
     19 C20         -8.3380    -8.1340     3.7560 c3         1 G94       0.079700
     20 C21         -9.5200    -8.0450     2.7890 c3         1 G94      -0.200400
     21 C22        -10.6160    -7.1720     3.4030 c3         1 G94      -0.145400
     22 C23        -11.7800    -7.0840     2.4490 c          1 G94       0.891600
     23 O24        -12.8650    -6.3650     2.7800 o          1 G94      -0.821300
     24 O25        -11.7380    -7.6610     1.3890 o          1 G94      -0.821300
     25 C26         -7.3110    -9.0920     3.2080 c          1 G94       0.889600
     26 O27         -7.6410   -10.3730     2.9810 o          1 G94      -0.803300
     27 O28         -6.1900    -8.7060     2.9730 o          1 G94      -0.803300
     28 C29         -3.4960     0.0030     3.5880 c3         1 G94      -0.018100
     29 C30         -3.8850    -1.4350     3.9400 c3         1 G94      -0.079400
     30 C31         -5.2270    -1.4360     4.6750 c3         1 G94       0.006900
     31 H2          -2.7660     0.0070     0.8380 hn         1 G94       0.303700
     32 H3          -0.7630    -0.0010     4.5170 ha         1 G94       0.185000
     33 H4           1.7590    -0.8180    -1.7210 hn         1 G94       0.458467
     34 H5           1.7580     0.8170    -1.7210 hn         1 G94       0.458467
     35 H6          -5.5310    -5.3870     7.1400 ha         1 G94       0.170000
     36 H7          -4.6890    -2.9880     6.9340 ha         1 G94       0.130000
     37 H8          -7.8070    -6.1350     3.1780 hn         1 G94       0.311500
     38 H9          -8.6850    -8.4900     4.7190 h1         1 G94       0.055700
     39 H10         -9.6370    -8.5330     3.7490 hc         1 G94       0.105200
     40 H11         -9.7630    -8.8390     2.0930 hc         1 G94       0.105200
     41 H12        -10.9460    -7.6100     4.3370 hc         1 G94       0.023200
     42 H13        -10.2250    -6.1790     3.5880 hc         1 G94       0.023200
     43 H16         -3.4100     0.5860     4.4960 hc         1 G94       0.060200
     44 H17         -4.2570     0.4370     2.9510 hc         1 G94       0.060200
     45 H18         -3.1240    -1.8690     4.5770 hc         1 G94       0.057700
     46 H19         -3.9710    -2.0180     3.0310 hc         1 G94       0.057700
     47 H20         -5.9880    -1.0020     4.0370 hc         1 G94       0.046200
     48 H21         -5.1410    -0.8510     5.5830 hc         1 G94       0.046200
     49 H22         -0.4960     0.0000    -0.8690 hn         1 G94       0.432800
     50 H113         3.0020     0.0000    -1.0430 hn         1 G94       0.458467
     51 C17         -7.0470    -6.5100     5.0340 c          1 G94       0.683700
@<TRIPOS>BOND
     1    11     2 1
     2     3     2 2
     3     3     4 1
     4     2     1 1
     5    10     4 2
     6     4     8 1
     7     1     9 1
     8     8     9 2
     9     8     7 1
    10     9     5 1
    11     7     6 2
    12     5     6 1
    13     6    28 1
    14    28    29 1
    15    29    30 1
    16    30    16 1
    17    23    22 1
    18    16    15 2
    19    16    12 1
    20    15    14 1
    21    22    24 1
    22    22    21 1
    23    12    13 1
    24    14    13 2
    25    21    20 1
    26    13    51 1
    27    20    19 1
    28    51    18 1
    29    51    17 2
    30    19    18 1
    31    19    25 1
    32    25    26 1
    33    25    27 1
    34     5    31 1
    35     7    32 1
    36    11    33 1
    37    11    34 1
    38    14    35 1
    39    15    36 1
    40    18    37 1
    41    19    38 1
    42    20    39 1
    43    20    40 1
    44    21    41 1
    45    21    42 1
    46    28    43 1
    47    28    44 1
    48    29    45 1
    49    29    46 1
    50    30    47 1
    51    30    48 1
    52     1    49 1
    53    50    11 1
@<TRIPOS>SUBSTRUCTURE
     1 G94         1 TEMP              0 ****  ****    0 ROOT
