@<TRIPOS>MOLECULE
molecule
   45    48     1     0     0
SMALL
bcc


@<TRIPOS>ATOM
      1 C1           0.0000     0.0000     0.0000 c3         1 G95       0.082800
      2 C2           1.5300     0.0000     0.0000 c3         1 G95       0.153000
      3 C3           2.1470     1.1940    -2.0330 c          1 G95       0.712700
      4 C4           2.6340     2.3910    -2.7230 cc         1 G95      -0.192700
      5 C5           2.8040     2.5050    -4.0750 cd         1 G95      -0.036000
      6 C9           5.1360     6.2490    -4.4500 ca         1 G95      -0.246300
      7 C10          5.5730     7.5520    -4.6020 ca         1 G95       0.452200
      8 C8           3.9970     5.9960    -3.6810 ca         1 G95       0.022000
      9 C7           3.4940     4.6230    -3.4910 cc         1 G95       0.101900
     10 C6           3.2730     3.7210    -4.4930 cd         1 G95      -0.177000
     11 S1           3.0830     3.9010    -1.9410 ss         1 G95      -0.099800
     12 O1           1.8560     0.1990    -2.6700 o          1 G95      -0.656100
     13 N1          -0.4900     0.1210    -1.3790 nz         1 G95      -0.809600
     14 C12          2.0350     8.5690    -1.9960 cc         1 G95      -0.069100
     15 C13          2.1660     7.2540    -2.2450 cd         1 G95      -0.218200
     16 C14          3.3450     7.0980    -3.0920 ca         1 G95      -0.206100
     17 C15          2.0330     0.0000     1.4210 ca         1 G95      -0.141300
     18 N2           2.0180     1.1960    -0.6910 ns         1 G95      -0.599900
     19 C16          2.4600    -1.1790     2.0030 ca         1 G95      -0.113500
     20 C17          2.9210    -1.1790     3.3060 ca         1 G95      -0.110000
     21 C18          2.9560     0.0000     4.0260 ca         1 G95      -0.092000
     22 N3           4.9430     8.5640    -4.0400 nb         1 G95      -0.688000
     23 C19          2.5300     1.1790     3.4440 ca         1 G95      -0.110000
     24 C20          2.0730     1.1800     2.1400 ca         1 G95      -0.113500
     25 C11          3.8570     8.3920    -3.2970 ca         1 G95       0.474800
     26 N4           3.0370     9.2620    -2.6180 na         1 G95      -0.271100
     27 H1          -0.3610     0.8370     0.5860 hx         1 G95       0.111200
     28 H1A         -0.3610    -0.9260     0.4320 hx         1 G95       0.111200
     29 H2           1.8910    -0.8840    -0.5110 h1         1 G95       0.104700
     30 H5           2.5850     1.6960    -4.7610 ha         1 G95       0.171000
     31 H6           3.4530     3.9500    -5.5360 ha         1 G95       0.176000
     32 HN1         -1.4780    -0.0350    -1.3970 hn         1 G95       0.461467
     33 HN1A        -0.0340    -0.5590    -1.9550 hn         1 G95       0.461467
     34 H12          1.2520     9.0130    -1.3930 h4         1 G95       0.177000
     35 H13          1.5200     6.4620    -1.8850 ha         1 G95       0.149000
     36 HN2          2.2890     2.0030    -0.1640 hn         1 G95       0.346500
     37 H16          2.4310    -2.1030     1.4380 ha         1 G95       0.129500
     38 H17          3.2550    -2.1030     3.7630 ha         1 G95       0.152000
     39 H18          3.3160    -0.0000     5.0480 ha         1 G95       0.154000
     40 H19          2.5600     2.1040     4.0080 ha         1 G95       0.152000
     41 H20          1.7380     2.1030     1.6830 ha         1 G95       0.129500
     42 HN4          3.1560    10.2550    -2.5830 hn         1 G95       0.316700
     43 H9           5.6710     5.4340    -4.9220 ha         1 G95       0.148000
     44 H131        -0.2760     1.0330    -1.7300 hn         1 G95       0.461467
     45 H10          6.4560     7.7460    -5.1990 h4         1 G95       0.039100
@<TRIPOS>BOND
     1     1     2 1
     2     1    13 1
     3     2    17 1
     4     2    18 1
     5     3     4 1
     6     3    12 2
     7     3    18 1
     8     4     5 2
     9     4    11 1
    10     5    10 1
    11     6     7 ar
    12     6     8 ar
    13     7    22 ar
    14     8     9 1
    15     8    16 ar
    16     9    10 2
    17     9    11 1
    18    14    15 2
    19    14    26 1
    20    15    16 1
    21    16    25 ar
    22    17    19 ar
    23    17    24 ar
    24    19    20 ar
    25    20    21 ar
    26    21    23 ar
    27    22    25 ar
    28    23    24 ar
    29    25    26 1
    30     1    27 1
    31     1    28 1
    32     2    29 1
    33     5    30 1
    34     6    43 1
    35     7    45 1
    36    10    31 1
    37    13    32 1
    38    13    33 1
    39    14    34 1
    40    15    35 1
    41    18    36 1
    42    19    37 1
    43    20    38 1
    44    21    39 1
    45    23    40 1
    46    24    41 1
    47    26    42 1
    48    44    13 1
@<TRIPOS>SUBSTRUCTURE
     1 G95         1 TEMP              0 ****  ****    0 ROOT
