@<TRIPOS>MOLECULE
G95
   45    48     1     0     0
SMALL
bcc


@<TRIPOS>ATOM
      1 C1           0.0000     0.0000     0.0000 c3         1 G95      -0.062200
      2 C2           1.5300     0.0000     0.0000 c3         1 G95       0.087000
      3 C3           2.1470     1.1940    -2.0330 c          1 G95       0.660700
      4 C4           2.6340     2.3910    -2.7230 cc         1 G95      -0.174700
      5 C5           2.8040     2.5050    -4.0750 cd         1 G95       0.019000
      6 C9           5.1360     6.2490    -4.4500 ca         1 G95      -0.207300
      7 C10          5.5730     7.5520    -4.6020 ca         1 G95       0.415200
      8 C8           3.9970     5.9960    -3.6810 ca         1 G95       0.021000
      9 C7           3.4940     4.6230    -3.4910 cc         1 G95       0.180900
     10 C6           3.2730     3.7210    -4.4930 cd         1 G95      -0.164000
     11 S1           3.0830     3.9010    -1.9410 ss         1 G95      -0.229800
     12 O1           1.8560     0.1990    -2.6700 o          1 G95      -0.702100
     13 N1          -0.4900     0.1210    -1.3790 nz         1 G95       0.047400
     14 C12          2.0350     8.5690    -1.9960 cc         1 G95      -0.240100
     15 C13          2.1660     7.2540    -2.2450 cd         1 G95      -0.181200
     16 C14          3.3450     7.0980    -3.0920 ca         1 G95      -0.201100
     17 C15          2.0330     0.0000     1.4210 ca         1 G95      -0.159300
     18 N2           2.0180     1.1960    -0.6910 ns         1 G95      -0.233900
     19 C16          2.4600    -1.1790     2.0030 ca         1 G95      -0.084500
     20 C17          2.9210    -1.1790     3.3060 ca         1 G95      -0.077500
     21 C18          2.9560     0.0000     4.0260 ca         1 G95      -0.060000
     22 N3           4.9430     8.5640    -4.0400 nb         1 G95      -0.543000
     23 C19          2.5300     1.1790     3.4440 ca         1 G95      -0.077500
     24 C20          2.0730     1.1800     2.1400 ca         1 G95      -0.084500
     25 C11          3.8570     8.3920    -3.2970 ca         1 G95       0.232800
     26 N4           3.0370     9.2620    -2.6180 na         1 G95       0.275900
     27 H1          -0.3610     0.8370     0.5860 hx         1 G95       0.085200
     28 H1A         -0.3610    -0.9260     0.4320 hx         1 G95       0.085200
     29 H2           1.8910    -0.8840    -0.5110 h1         1 G95       0.076700
     30 H5           2.5850     1.6960    -4.7610 ha         1 G95       0.135000
     31 H6           3.4530     3.9500    -5.5360 ha         1 G95       0.146000
     32 HN1         -1.4780    -0.0350    -1.3970 hn         1 G95       0.236800
     33 HN1A        -0.0340    -0.5590    -1.9550 hn         1 G95       0.236800
     34 H12          1.2520     9.0130    -1.3930 h4         1 G95       0.146000
     35 H13          1.5200     6.4620    -1.8850 ha         1 G95       0.129000
     36 HN2          2.2890     2.0030    -0.1640 hn         1 G95       0.224500
     37 H16          2.4310    -2.1030     1.4380 ha         1 G95       0.105000
     38 H17          3.2550    -2.1030     3.7630 ha         1 G95       0.120000
     39 H18          3.3160    -0.0000     5.0480 ha         1 G95       0.120000
     40 H19          2.5600     2.1040     4.0080 ha         1 G95       0.120000
     41 H20          1.7380     2.1030     1.6830 ha         1 G95       0.105000
     42 HN4          3.1560    10.2550    -2.5830 hn         1 G95       0.128700
     43 H9           5.6710     5.4340    -4.9220 ha         1 G95       0.121000
     44 H131        -0.2760     1.0330    -1.7300 hn         1 G95       0.236800
     45 H10          6.4560     7.7460    -5.1990 h4         1 G95      -0.010900
@<TRIPOS>BOND
     1     1     2 1   
     2     1    13 1   
     3     1    27 1   
     4     1    28 1   
     5     2    17 1   
     6     2    18 1   
     7     2    29 1   
     8     3     4 1   
     9     3    12 2   
    10     3    18 1   
    11     4     5 2   
    12     4    11 1   
    13     5    10 1   
    14     5    30 1   
    15     6     7 ar  
    16     6     8 ar  
    17     6    43 1   
    18     7    22 ar  
    19     7    45 1   
    20     8     9 1   
    21     8    16 ar  
    22     9    10 2   
    23     9    11 1   
    24    10    31 1   
    25    13    32 1   
    26    13    33 1   
    27    13    44 1   
    28    14    15 2   
    29    14    26 1   
    30    14    34 1   
    31    15    16 1   
    32    15    35 1   
    33    16    25 ar  
    34    17    19 ar  
    35    17    24 ar  
    36    18    36 1   
    37    19    20 ar  
    38    19    37 1   
    39    20    21 ar  
    40    20    38 1   
    41    21    23 ar  
    42    21    39 1   
    43    22    25 ar  
    44    23    24 ar  
    45    23    40 1   
    46    24    41 1   
    47    25    26 1   
    48    26    42 1   
@<TRIPOS>SUBSTRUCTURE
     1 G95         1 TEMP              0 ****  ****    0 ROOT
