@<TRIPOS>MOLECULE
G96
   62    65     1     0     0
SMALL
bcc


@<TRIPOS>ATOM
      1 N1          0.3420    0.8750    0.0030 nc        1 G96     -0.304300
      2 N3          3.1210   -0.9030    1.4380 nh        1 G96     -0.913500
      3 C4          7.6030   -0.7630  -12.1480 ca        1 G96     -0.101000
      4 C5          6.4980    0.0620  -11.9350 ca        1 G96     -0.111500
      5 C6          6.3850    0.7890  -10.7500 ca        1 G96     -0.137000
      6 C7          4.9920    0.9360   -7.5940 c3        1 G96      0.112400
      7 C8          1.9970   -0.1730    1.1650 cd        1 G96      0.506900
      8 C10         4.1190    0.0430   -5.5520 ca        1 G96      0.560600
      9 C15         2.7640    0.1990   -3.6230 ca        1 G96     -0.039200
     10 C17         7.4130   -0.5200   -2.1400 c1        1 G96     -0.062100
     11 C20         8.3620   -1.2600   -0.0080 c3        1 G96     -0.104600
     12 C22        -0.5100   -0.7660   -2.9110 c3        1 G96     -0.119100
     13 C24         7.2790    1.4840   -8.5110 c3        1 G96     -0.057100
     14 O3          9.5120   -1.5900   -2.1290 oh        1 G96     -0.589800
     15 C18         8.6550   -0.7070   -1.4020 c3        1 G96      0.225900
     16 C19         9.4150    0.6190   -1.3020 c3        1 G96     -0.104600
     17 C12         5.2130   -0.1670   -3.5020 ca        1 G96      0.640300
     18 N4          5.2750   -0.1460   -4.8500 nb        1 G96     -0.784000
     19 C14         3.9710   -0.0010   -2.8290 ca        1 G96     -0.022900
     20 N6          3.6440    0.0200   -1.4720 nc        1 G96     -0.550100
     21 C16         2.3010    0.2210   -1.4240 cd        1 G96      0.416800
     22 N5          1.7170    0.3520   -2.7150 na        1 G96     -0.120300
     23 C9          1.5530    0.3160   -0.1860 cd        1 G96      0.152700
     24 O2          0.0390    0.7680    1.2780 os        1 G96      0.153600
     25 N2          0.9800    0.1670    2.0160 nc        1 G96     -0.417300
     26 C11         2.8360    0.2290   -5.0240 ca        1 G96     -0.196300
     27 C23         6.5130    0.7840   -7.3770 c3        1 G96      0.097500
     28 N7          6.9180   -0.6520   -7.2130 n4        1 G96     -0.828600
     29 C1          7.3730    0.6900   -9.7650 ca        1 G96     -0.147300
     30 C3          8.6010   -0.8520  -11.1770 ca        1 G96     -0.111500
     31 C2          8.4900   -0.1280   -9.9920 ca        1 G96     -0.137000
     32 HN3         3.8960   -0.7770    0.8280 hn        1 G96      0.442300
     33 HN3A        3.3380   -1.0520    2.3990 hn        1 G96      0.442300
     34 H4          7.6950   -1.3310  -13.0880 ha        1 G96      0.157000
     35 H5          5.7180    0.1500  -12.7090 ha        1 G96      0.154500
     36 H6          5.5240    1.4610  -10.6060 ha        1 G96      0.135000
     37 H7          4.7310    0.7900   -8.6810 h1        1 G96      0.095200
     38 H7A         4.6930    1.9620   -7.2540 h1        1 G96      0.095200
     39 H20         7.7840   -2.2120   -0.0760 hc        1 G96      0.057200
     40 H20A        9.3270   -1.4600    0.5180 hc        1 G96      0.057200
     41 H20B        7.7720   -0.5190    0.5810 hc        1 G96      0.057200
     42 H21         0.2960    0.8160   -4.1550 h1        1 G96      0.078700
     43 H21A       -0.1180    1.3280   -2.4580 h1        1 G96      0.078700
     44 H22        -1.5610   -0.5250   -3.2050 hc        1 G96      0.059700
     45 H22A       -0.1360   -1.5910   -3.5640 hc        1 G96      0.059700
     46 H22B       -0.5130   -1.1230   -1.8530 hc        1 G96      0.059700
     47 H24         6.7530    2.4590   -8.7100 hc        1 G96      0.088700
     48 H24A        8.3120    1.7370   -8.1460 hc        1 G96      0.088700
     49 HO3         9.1990   -2.4900   -1.9730 ho        1 G96      0.409000
     50 H19         8.7810    1.3780   -0.7890 hc        1 G96      0.057200
     51 H19A       10.3530    0.4590   -0.7200 hc        1 G96      0.057200
     52 H19B        9.6850    0.9840   -2.3210 hc        1 G96      0.057200
     53 H11         1.9620    0.3680   -5.6730 ha        1 G96      0.176000
     54 H23         6.7850    1.3050   -6.4070 hx        1 G96      0.120700
     55 HN7         7.4970   -0.7530   -6.3750 hn        1 G96      0.465467
     56 HN7A        6.0740   -1.2320   -7.0960 hn        1 G96      0.465467
     57 H3          9.4860   -1.4840  -11.3540 ha        1 G96      0.154500
     58 H2          9.3080   -0.1640   -9.2560 ha        1 G96      0.135000
     59 C13         6.4040   -0.3590   -2.7650 cg        1 G96     -0.254000
     60 C21         0.3260    0.4920   -3.0730 c3        1 G96      0.033300
     61 H73         7.4370   -0.9780   -8.0370 hn        1 G96      0.465467
     62 O1          4.2190   -0.0660   -6.9460 os        1 G96     -0.461100
@<TRIPOS>BOND
     1    1   23 2   
     2    1   24 1   
     3    2    7 1   
     4    2   32 1   
     5    2   33 1   
     6    3    4 ar  
     7    3   30 ar  
     8    3   34 1   
     9    4    5 ar  
    10    4   35 1   
    11    5   29 ar  
    12    5   36 1   
    13    6   27 1   
    14    6   37 1   
    15    6   38 1   
    16    6   62 1   
    17    7   23 1   
    18    7   25 2   
    19    8   18 ar  
    20    8   26 ar  
    21    8   62 1   
    22    9   19 ar  
    23    9   22 1   
    24    9   26 ar  
    25   10   15 1   
    26   10   59 3   
    27   11   15 1   
    28   11   39 1   
    29   11   40 1   
    30   11   41 1   
    31   12   44 1   
    32   12   45 1   
    33   12   46 1   
    34   12   60 1   
    35   13   27 1   
    36   13   29 1   
    37   13   47 1   
    38   13   48 1   
    39   14   15 1   
    40   14   49 1   
    41   15   16 1   
    42   16   50 1   
    43   16   51 1   
    44   16   52 1   
    45   17   18 ar  
    46   17   19 ar  
    47   17   59 1   
    48   19   20 1   
    49   20   21 2   
    50   21   22 1   
    51   21   23 1   
    52   22   60 1   
    53   24   25 1   
    54   26   53 1   
    55   27   28 1   
    56   27   54 1   
    57   28   55 1   
    58   28   56 1   
    59   28   61 1   
    60   29   31 ar  
    61   30   31 ar  
    62   30   57 1   
    63   31   58 1   
    64   42   60 1   
    65   43   60 1   
@<TRIPOS>SUBSTRUCTURE
     1 G96         1 TEMP              0 ****  ****    0 ROOT
