@<TRIPOS>MOLECULE
molecule
   43    46     1     0     0
SMALL
bcc


@<TRIPOS>ATOM
      1 CAH          0.0000     0.0000     0.0000 ca         1 G97      -0.085000
      2 CAE          1.3810     0.0000     0.0000 ca         1 G97      -0.145500
      3 CAD          2.0750     0.0000     1.1970 ca         1 G97      -0.111000
      4 CAF          1.3910    -0.0010     2.3990 ca         1 G97      -0.145500
      5 CAI          0.0110    -0.0010     2.4110 ca         1 G97      -0.085000
      6 CAW         -0.6940     0.0010     1.2080 cp         1 G97      -0.143500
      7 C2          -2.1770     0.0070     1.2160 cp         1 G97       0.790500
      8 N1          -2.8200     0.1350     0.0570 nb         1 G97      -0.817000
      9 N3          -2.8050    -0.1200     2.3690 nb         1 G97      -0.770000
     10 C4          -4.1450    -0.1190     2.4160 ca         1 G97       0.497600
     11 CAM         -4.8410    -0.2520     3.6250 ca         1 G97      -0.227300
     12 CAU         -6.2210    -0.2440     3.6160 ca         1 G97       0.095600
     13 NAQ         -6.9190    -0.3760     4.8170 ns         1 G97      -0.475100
     14 CAT         -8.0680     0.3030     5.0070 c          1 G97       0.666300
     15 OAB         -8.5400     0.9640     4.1020 o          1 G97      -0.598100
     16 CAC         -8.7510     0.2440     6.3090 ce         1 G97      -0.256200
     17 CAA         -9.8850     0.9130     6.4960 c2         1 G97      -0.120000
     18 CAK         -6.9280    -0.1050     2.4170 ca         1 G97      -0.141000
     19 CAL         -6.2710     0.0250     1.2300 ca         1 G97      -0.078000
     20 C5          -4.8710     0.0200     1.2070 ca         1 G97      -0.334600
     21 C6          -4.1430     0.1480    -0.0020 ca         1 G97       0.759200
     22 NAR         -4.7970     0.2820    -1.2090 nu         1 G97      -0.832600
     23 CAV         -4.0650     0.5240    -2.3780 cd         1 G97       0.581200
     24 CAJ         -2.6650     0.5600    -2.4820 cd         1 G97      -0.345300
     25 CAG         -2.3510     0.8210    -3.7720 cc         1 G97      -0.116300
     26 NAS         -3.5040     0.9460    -4.4610 na         1 G97      -0.042600
     27 NAN         -4.5670     0.7500    -3.5690 nc         1 G97      -0.560800
     28 HAH         -0.5430     0.0010    -0.9380 ha         1 G97       0.152500
     29 HAE          1.9210     0.0000    -0.9390 ha         1 G97       0.131000
     30 HAD          3.1580     0.0000     1.1920 ha         1 G97       0.128000
     31 HAF          1.9400    -0.0010     3.3320 ha         1 G97       0.131000
     32 HAI         -0.5230    -0.0010     3.3540 ha         1 G97       0.152500
     33 HAM         -4.3060    -0.5030     4.5330 ha         1 G97       0.151000
     34 HNAQ        -6.5790    -0.9920     5.5290 hn         1 G97       0.329500
     35 HAC         -8.3300    -0.3440     7.1150 ha         1 G97       0.129000
     36 HAA        -10.3880     0.8700     7.4540 ha         1 G97       0.132000
     37 HAAA       -10.3060     1.5020     5.6900 ha         1 G97       0.132000
     38 HAK         -8.0110    -0.1020     2.4320 ha         1 G97       0.168000
     39 HAL         -6.8300     0.1320     0.3090 ha         1 G97       0.130000
     40 HNAR        -5.7900     0.1670    -1.2560 hn         1 G97       0.469800
     41 HAJ         -1.9620     0.4060    -1.6730 ha         1 G97       0.203000
     42 HAG         -1.3520     0.9150    -4.1780 h4         1 G97       0.169000
     43 HNAS        -3.5860     1.1400    -5.4400 hn         1 G97       0.330700
@<TRIPOS>BOND
     1     2     1 ar
     2     1     6 ar
     3     1    28 1
     4     2     3 ar
     5     2    29 1
     6     3     4 ar
     7     3    30 1
     8     4     5 ar
     9     4    31 1
    10     6     5 ar
    11     5    32 1
    12     6     7 1
    13     8     7 ar
    14     7     9 ar
    15     8    21 ar
    16     9    10 ar
    17    20    10 ar
    18    10    11 ar
    19    11    12 ar
    20    11    33 1
    21    18    12 ar
    22    12    13 1
    23    13    14 1
    24    13    34 1
    25    15    14 2
    26    14    16 1
    27    16    17 2
    28    16    35 1
    29    17    36 1
    30    17    37 1
    31    19    18 ar
    32    18    38 1
    33    20    19 ar
    34    19    39 1
    35    21    20 ar
    36    22    21 1
    37    23    22 1
    38    22    40 1
    39    27    23 2
    40    24    23 1
    41    25    24 2
    42    24    41 1
    43    26    25 1
    44    25    42 1
    45    26    27 1
    46    26    43 1
@<TRIPOS>SUBSTRUCTURE
     1 G97         1 TEMP              0 ****  ****    0 ROOT
