@<TRIPOS>MOLECULE
G97
   43    46     1     0     0
SMALL
bcc


@<TRIPOS>ATOM
      1 CAH          0.0000     0.0000     0.0000 ca         1 G97      -0.067000
      2 CAE          1.3810     0.0000     0.0000 ca         1 G97      -0.117000
      3 CAD          2.0750     0.0000     1.1970 ca         1 G97      -0.087000
      4 CAF          1.3910    -0.0010     2.3990 ca         1 G97      -0.117000
      5 CAI          0.0110    -0.0010     2.4110 ca         1 G97      -0.067000
      6 CAW         -0.6940     0.0010     1.2080 cp         1 G97      -0.160500
      7 C2          -2.1770     0.0070     1.2160 cp         1 G97       0.714500
      8 N1          -2.8200     0.1350     0.0570 nb         1 G97      -0.706000
      9 N3          -2.8050    -0.1200     2.3690 nb         1 G97      -0.670000
     10 C4          -4.1450    -0.1190     2.4160 ca         1 G97       0.459600
     11 CAM         -4.8410    -0.2520     3.6250 ca         1 G97      -0.204300
     12 CAU         -6.2210    -0.2440     3.6160 ca         1 G97      -0.050400
     13 NAQ         -6.9190    -0.3760     4.8170 ns         1 G97      -0.030100
     14 CAT         -8.0680     0.3030     5.0070 c          1 G97       0.574300
     15 OAB         -8.5400     0.9640     4.1020 o          1 G97      -0.639100
     16 CAC         -8.7510     0.2440     6.3090 ce         1 G97      -0.251200
     17 CAA         -9.8850     0.9130     6.4960 c2         1 G97      -0.045000
     18 CAK         -6.9280    -0.1050     2.4170 ca         1 G97      -0.120000
     19 CAL         -6.2710     0.0250     1.2300 ca         1 G97      -0.048000
     20 C5          -4.8710     0.0200     1.2070 ca         1 G97      -0.329600
     21 C6          -4.1430     0.1480    -0.0020 ca         1 G97       0.546200
     22 NAR         -4.7970     0.2820    -1.2090 nu         1 G97      -0.339600
     23 CAV         -4.0650     0.5240    -2.3780 cc         1 G97       0.445200
     24 CAJ         -2.6650     0.5600    -2.4820 cc         1 G97      -0.351300
     25 CAG         -2.3510     0.8210    -3.7720 cd         1 G97      -0.257300
     26 NAS         -3.5040     0.9460    -4.4610 na         1 G97       0.458400
     27 NAN         -4.5670     0.7500    -3.5690 nd         1 G97      -0.708800
     28 HAH         -0.5430     0.0010    -0.9380 ha         1 G97       0.125000
     29 HAE          1.9210     0.0000    -0.9390 ha         1 G97       0.102500
     30 HAD          3.1580     0.0000     1.1920 ha         1 G97       0.099000
     31 HAF          1.9400    -0.0010     3.3320 ha         1 G97       0.102500
     32 HAI         -0.5230    -0.0010     3.3540 ha         1 G97       0.125000
     33 HAM         -4.3060    -0.5010     4.5330 ha         1 G97       0.123000
     34 HNAQ        -6.5650    -0.9730     5.5390 hn         1 G97       0.170500
     35 HAC         -8.3300    -0.3440     7.1150 ha         1 G97       0.106000
     36 HAA        -10.3060     1.5020     5.6900 ha         1 G97       0.092500
     37 HAAA       -10.3880     0.8700     7.4550 ha         1 G97       0.092500
     38 HAK         -8.0110    -0.1020     2.4320 ha         1 G97       0.148000
     39 HAL         -6.8290     0.1320     0.3080 ha         1 G97       0.105000
     40 HNAR        -5.7900     0.1680    -1.2560 hn         1 G97       0.293800
     41 HAJ         -1.9620     0.4060    -1.6730 ha         1 G97       0.196000
     42 HAG         -1.3520     0.9150    -4.1780 h4         1 G97       0.142000
     43 HNAS        -3.5860     1.1400    -5.4400 hn         1 G97       0.144700
@<TRIPOS>BOND
     1     1     2 ar  
     2     1     6 ar  
     3     1    28 1   
     4     2     3 ar  
     5     2    29 1   
     6     3     4 ar  
     7     3    30 1   
     8     4     5 ar  
     9     4    31 1   
    10     5     6 ar  
    11     5    32 1   
    12     6     7 1   
    13     7     8 ar  
    14     7     9 ar  
    15     8    21 ar  
    16     9    10 ar  
    17    10    11 ar  
    18    10    20 ar  
    19    11    12 ar  
    20    11    33 1   
    21    12    13 1   
    22    12    18 ar  
    23    13    14 1   
    24    13    34 1   
    25    14    15 2   
    26    14    16 1   
    27    16    17 2   
    28    16    35 1   
    29    17    36 1   
    30    17    37 1   
    31    18    19 ar  
    32    18    38 1   
    33    19    20 ar  
    34    19    39 1   
    35    20    21 ar  
    36    21    22 1   
    37    22    23 1   
    38    22    40 1   
    39    23    24 1   
    40    23    27 2   
    41    24    25 2   
    42    24    41 1   
    43    25    26 1   
    44    25    42 1   
    45    26    27 1   
    46    26    43 1   
@<TRIPOS>SUBSTRUCTURE
     1 G97         1 TEMP              0 ****  ****    0 ROOT
