@<TRIPOS>MOLECULE
G98
   65    68     1     0     0
SMALL
bcc


@<TRIPOS>ATOM
      1 N1           0.0000     0.0000     0.0000 nb         1 G98      -0.687000
      2 N3           3.3460    -0.0010     1.5430 nc         1 G98      -0.530100
      3 C4           3.4770    -0.0010     2.8570 cd         1 G98       0.247400
      4 C5           2.0350     0.0000     1.2180 ca         1 G98      -0.076900
      5 C6           1.3030     0.0000     2.4230 ca         1 G98      -0.216200
      6 C10          5.9370    -0.1120     2.9920 cc         1 G98      -0.410700
      7 C13          3.7660    -0.2660    -3.3400 c3         1 G98       0.315900
      8 C15          5.3090    -0.0730    -2.5780 c3         1 G98      -0.054100
      9 C17         -2.8550    -1.4430    -0.7150 c3         1 G98      -0.033400
     10 C20         -4.3920     1.4670    -1.2820 ca         1 G98      -0.069500
     11 C21         -5.6110     2.1180    -1.2400 ca         1 G98      -0.094500
     12 C22         -6.4130     2.0130    -0.1180 ca         1 G98      -0.098000
     13 C24         -4.7760     0.6040     0.9190 ca         1 G98      -0.069500
     14 O2           3.6140     0.4730    -4.4280 oh         1 G98      -0.531800
     15 C14          3.6570    -1.5250    -3.6160 c3         1 G98      -0.054100
     16 C12          2.6160    -0.0120    -2.2650 c1         1 G98      -0.074100
     17 C3           1.3280     0.0000     0.0000 ca         1 G98       0.672300
     18 C1          -0.7040     0.0000     1.1210 ca         1 G98       0.669600
     19 O3          -2.0600     0.0000     1.0540 os         1 G98      -0.404100
     20 C16         -2.6460    -0.0000    -0.2500 c3         1 G98       0.274400
     21 C19         -3.9740     0.7100    -0.2030 ca         1 G98      -0.160300
     22 C23         -5.9950     1.2550     0.9610 ca         1 G98      -0.094500
     23 N7          -1.7120    -3.5320    -0.6940 nz         1 G98       0.028400
     24 C2          -0.0840    -0.0000     2.3610 ca         1 G98      -0.253300
     25 N2           2.2310    -0.0010     3.4430 na         1 G98       0.339700
     26 C9           4.7080    -0.0020     3.5560 cd         1 G98      -0.157200
     27 N5           6.9040    -0.0690     3.9760 na         1 G98       0.212300
     28 O1           6.2550     0.0760     5.2280 os         1 G98      -0.297400
     29 N4           4.8610     0.1130     4.9610 na         1 G98       0.256300
     30 H7           2.3080    -0.8240     5.4840 h1         1 G98       0.035700
     31 H7A          0.9740    -0.4110     4.6280 h1         1 G98       0.035700
     32 H8           0.9090     1.4910     5.5040 hc         1 G98       0.038367
     33 H8A          2.2600     1.9960     4.5250 hc         1 G98       0.038367
     34 H8B          2.3690     1.2520     6.4060 hc         1 G98       0.038367
     35 H15          5.3420    -0.7520    -1.7350 hc         1 G98       0.026533
     36 H15A         5.1960     0.9440    -2.2210 hc         1 G98       0.026533
     37 H15B         5.8290    -0.0300    -3.5280 hc         1 G98       0.026533
     38 H17         -3.3450    -1.9970     0.0770 hc         1 G98       0.024200
     39 H17A        -3.4720    -1.8660    -1.4980 hc         1 G98       0.024200
     40 H20         -3.8040     1.5640    -2.1860 ha         1 G98       0.106500
     41 H21         -6.3790     2.5190    -1.8890 ha         1 G98       0.127500
     42 H22         -7.1550     2.7820    -0.2940 ha         1 G98       0.131000
     43 H24         -4.3350     0.0930     1.7660 ha         1 G98       0.106500
     44 HO2          3.0400    -0.0140    -4.9950 ho         1 G98       0.412000
     45 H14          3.7710    -2.2640    -2.8310 hc         1 G98       0.026533
     46 H14A         4.1790    -1.9430    -4.4680 hc         1 G98       0.026533
     47 H14B         2.7760    -1.8480    -4.1580 hc         1 G98       0.026533
     48 H16         -1.9880     0.5110    -0.9420 h1         1 G98       0.059700
     49 H23         -6.6320     0.9960     1.7980 ha         1 G98       0.127500
     50 H18         -0.8590    -2.0010    -0.0140 hx         1 G98       0.096700
     51 H18A        -1.0600    -1.7190    -1.7850 hx         1 G98       0.096700
     52 HN7         -2.3190    -4.0510    -0.0910 hn         1 G98       0.237800
     53 HN7A        -0.7970    -3.8700    -0.9180 hn         1 G98       0.237800
     54 H2          -0.1180    -0.0620     3.4420 ha         1 G98       0.157000
     55 HN6          5.9020    -1.0920     1.1920 hn         1 G98       0.200467
     56 HN6A         5.7820     0.4210     1.0050 hn         1 G98       0.200467
     57 HN5          7.8960    -0.1530     3.8650 hn         1 G98       0.196700
     58 HN4          4.3070    -0.5640     5.4480 hn         1 G98       0.134700
     59 C7           1.9450    -0.0020     4.8800 c3         1 G98      -0.096700
     60 C11          2.0440    -0.0000    -1.2400 cg         1 G98      -0.320000
     61 N6           6.1840    -0.2420     1.6380 nz         1 G98       0.336000
     62 H73         -2.3540    -3.5840    -1.4600 hn         1 G98       0.237800
     63 H63          7.0780    -0.4480     1.2380 hn         1 G98       0.200467
     64 C18         -1.4970    -2.1260    -0.8810 c3         1 G98      -0.072200
     65 C8           1.9870     1.4330     5.4090 c3         1 G98       0.039900
@<TRIPOS>BOND
     1     1    17 ar  
     2     1    18 ar  
     3     2     3 2   
     4     2     4 1   
     5     3    25 1   
     6     3    26 1   
     7     4     5 ar  
     8     4    17 ar  
     9     5    24 ar  
    10     5    25 1   
    11     6    26 2   
    12     6    27 1   
    13     6    61 1   
    14     7     8 1   
    15     7    14 1   
    16     7    15 1   
    17     7    16 1   
    18     8    35 1   
    19     8    36 1   
    20     8    37 1   
    21     9    20 1   
    22     9    38 1   
    23     9    39 1   
    24     9    64 1   
    25    10    11 ar  
    26    10    21 ar  
    27    10    40 1   
    28    11    12 ar  
    29    11    41 1   
    30    12    22 ar  
    31    12    42 1   
    32    13    21 ar  
    33    13    22 ar  
    34    13    43 1   
    35    14    44 1   
    36    15    45 1   
    37    15    46 1   
    38    15    47 1   
    39    16    60 3   
    40    17    60 1   
    41    18    19 1   
    42    18    24 ar  
    43    19    20 1   
    44    20    21 1   
    45    20    48 1   
    46    22    49 1   
    47    23    52 1   
    48    23    53 1   
    49    23    62 1   
    50    23    64 1   
    51    24    54 1   
    52    25    59 1   
    53    26    29 1   
    54    27    28 1   
    55    27    57 1   
    56    28    29 1   
    57    29    58 1   
    58    30    59 1   
    59    31    59 1   
    60    32    65 1   
    61    33    65 1   
    62    34    65 1   
    63    50    64 1   
    64    51    64 1   
    65    55    61 1   
    66    56    61 1   
    67    59    65 1   
    68    61    63 1   
@<TRIPOS>SUBSTRUCTURE
     1 G98         1 TEMP              0 ****  ****    0 ROOT
