@<TRIPOS>MOLECULE
molecule
   13    12     1     0     0
SMALL
bcc


@<TRIPOS>ATOM
      1 O2           0.0000     0.0000     0.0000 o          1 G9A      -0.871800
      2 C4           1.2090     0.0000     0.0000 c          1 G9A       0.895600
      3 O1           1.8800     0.0000     1.1620 o          1 G9A      -0.871800
      4 C1           1.9610    -0.0060    -1.3060 c3         1 G9A      -0.157200
      5 C2           0.9810    -0.0110    -2.4510 c2         1 G9A      -0.121200
      6 C3           1.0510     0.9290    -3.3900 ce         1 G9A      -0.261200
      7 C5           0.0960     0.9240    -4.5070 c          1 G9A       0.887800
      8 O4          -0.7590     0.0610    -4.5720 o          1 G9A      -0.883300
      9 O3           0.1660     1.8760    -5.4580 o          1 G9A      -0.883300
     10 H2           2.5840     0.8780    -1.3670 hc         1 G9A       0.020200
     11 H3           2.5830    -0.8910    -1.3600 hc         1 G9A       0.020200
     12 H4           0.2200    -0.7800    -2.5100 ha         1 G9A       0.139000
     13 H5           1.8120     1.6980    -3.3310 ha         1 G9A       0.086000
@<TRIPOS>BOND
     1     8     7 1
     2     4     5 1
     3     4     2 1
     4     6     5 2
     5     6     7 1
     6     7     9 1
     7     2     1 1
     8     2     3 1
     9     4    10 1
    10     4    11 1
    11     5    12 1
    12     6    13 1
@<TRIPOS>SUBSTRUCTURE
     1 G9A         1 TEMP              0 ****  ****    0 ROOT
