@<TRIPOS>MOLECULE
G9A
   13    12     1     0     0
SMALL
bcc


@<TRIPOS>ATOM
      1 O2          0.7550    0.2230    0.8000 o         1 G9A     -0.883800
      2 C4          1.6990   -0.1260    0.0270 c         1 G9A      0.900600
      3 O1          2.7790   -0.6220    0.4820 o         1 G9A     -0.883800
      4 C1          1.5750    0.0270   -1.4940 c3        1 G9A     -0.145200
      5 C2          0.3670    0.7540   -1.9400 c2        1 G9A     -0.153200
      6 C3          0.0160    1.0620   -3.1890 ce        1 G9A     -0.246200
      7 C5          0.7130    0.7800   -4.4900 c         1 G9A      0.904800
      8 O4          0.5550   -0.3460   -5.0540 o         1 G9A     -0.874800
      9 O3          1.3720    1.7160   -5.0430 o         1 G9A     -0.874800
     10 H2          2.4950    0.5490   -1.8660 hc        1 G9A      0.040700
     11 H3          1.5820   -1.0030   -1.9400 hc        1 G9A      0.040700
     12 H4         -0.2900    1.0550   -1.1010 ha        1 G9A      0.108000
     13 H5         -0.9250    1.6180   -3.3520 ha        1 G9A      0.066000
@<TRIPOS>BOND
     1    1    2 1   
     2    2    3 1   
     3    2    4 1   
     4    4    5 1   
     5    4   10 1   
     6    4   11 1   
     7    5    6 2   
     8    5   12 1   
     9    6    7 1   
    10    6   13 1   
    11    7    8 1   
    12    7    9 1   
@<TRIPOS>SUBSTRUCTURE
     1 G9A         1 TEMP              0 ****  ****    0 ROOT
