@<TRIPOS>MOLECULE
molecule
   70    75     1     0     0
SMALL
bcc


@<TRIPOS>ATOM
      1 C1           0.0000     0.0000     0.0000 ca         1 G9B      -0.081200
      2 C2           1.4060     0.0000     0.0000 ca         1 G9B       0.099400
      3 C3          -0.6910    -0.0010     1.2040 ca         1 G9B      -0.117000
      4 C4           2.0940     0.0000     1.2190 ca         1 G9B      -0.080000
      5 C5           0.0080    -0.0000     2.3920 ca         1 G9B      -0.117000
      6 C6           1.3960     0.0010     2.3930 ca         1 G9B      -0.140000
      7 N7          -0.3860    -0.0050    -1.3280 na         1 G9B      -0.059400
      8 C8           0.7590    -0.0080    -2.0810 cc         1 G9B       0.407800
      9 N9           1.8070    -0.0000    -1.2940 nd         1 G9B      -0.641100
     10 C10         -1.7010    -0.0070    -1.8110 ca         1 G9B       0.026800
     11 C11         -2.1770     1.0790    -2.5320 ca         1 G9B      -0.131000
     12 C12         -2.5270    -1.0990    -1.5760 ca         1 G9B      -0.136000
     13 C13         -3.4790     1.0730    -3.0100 ca         1 G9B       0.059600
     14 C14         -3.8230    -1.1020    -2.0530 ca         1 G9B      -0.108000
     15 C15         -4.3020    -0.0200    -2.7660 ca         1 G9B      -0.127000
     16 N16         -3.9640     2.1660    -3.7360 ns         1 G9B      -0.478100
     17 C17         -5.2550     2.5340    -3.6200 c          1 G9B       0.659100
     18 C18         -5.8070     3.6350    -4.4880 c3         1 G9B      -0.159400
     19 O19         -5.9740     1.9790    -2.8160 o          1 G9B      -0.592100
     20 C20         -7.2840     3.8530    -4.1570 c3         1 G9B      -0.077100
     21 C21          0.8050    -0.0140    -3.5580 ca         1 G9B       0.212700
     22 N22         -0.3140    -0.1660    -4.2590 nb         1 G9B      -0.612000
     23 C23          2.0310     0.1480    -4.2250 ca         1 G9B       0.621900
     24 C24         -0.2670    -0.1710    -5.5860 ca         1 G9B       0.329500
     25 N25          2.0670     0.1420    -5.5520 nb         1 G9B      -0.734000
     26 C26          0.9540    -0.0160    -6.2450 ca         1 G9B       0.367900
     27 N27          3.2000     0.3140    -3.4990 nv         1 G9B      -0.987500
     28 C28         -1.5140    -0.3420    -6.3700 cc         1 G9B      -0.360800
     29 C29         -1.6050    -0.4610    -7.7270 cd         1 G9B      -0.102300
     30 C30         -2.8220    -0.4160    -5.8500 cc         1 G9B       0.357200
     31 N31         -2.9090    -0.5980    -8.0390 na         1 G9B       0.074400
     32 N32         -3.6490    -0.5660    -6.8510 nd         1 G9B      -0.519800
     33 C33         -3.4580    -0.7540    -9.3880 c3         1 G9B       0.080000
     34 C34         -3.4120    -2.2310    -9.7900 c3         1 G9B      -0.095900
     35 C35         -2.6240     0.0620   -10.3780 c3         1 G9B      -0.095900
     36 C36         -3.9300    -2.3810   -11.2220 c3         1 G9B       0.165300
     37 C37         -3.1640    -0.1540   -11.7930 c3         1 G9B       0.165300
     38 N38         -3.0980    -1.5820   -12.1310 n3         1 G9B      -0.734600
     39 C39         -3.4790    -1.8090   -13.5310 c3         1 G9B       0.153100
     40 H3          -1.7740    -0.0010     1.2100 ha         1 G9B       0.138000
     41 H4           3.1770     0.0000     1.2310 ha         1 G9B       0.139000
     42 H5          -0.5310     0.0000     3.3330 ha         1 G9B       0.135000
     43 H6           1.9320     0.0010     3.3350 ha         1 G9B       0.133000
     44 H11         -1.5340     1.9290    -2.7210 ha         1 G9B       0.142000
     45 H12         -2.1540    -1.9490    -1.0170 ha         1 G9B       0.143000
     46 H14         -4.4660    -1.9540    -1.8660 ha         1 G9B       0.141000
     47 H15         -5.3190    -0.0260    -3.1390 ha         1 G9B       0.165000
     48 HN16        -3.3440     2.6940    -4.3170 hn         1 G9B       0.327500
     49 H18         -5.7070     3.3570    -5.5300 hc         1 G9B       0.061200
     50 H18A        -5.2560     4.5500    -4.3040 hc         1 G9B       0.061200
     51 H20         -7.6790     4.6510    -4.7750 hc         1 G9B       0.045033
     52 H20A        -7.8360     2.9410    -4.3480 hc         1 G9B       0.045033
     53 H20B        -7.3840     4.1230    -3.1120 hc         1 G9B       0.045033
     54 H26          0.9880    -0.0200    -7.3270 h4         1 G9B       0.027100
     55 HN27         3.1710     0.3230    -2.4990 hn         1 G9B       0.462300
     56 HN2A         4.0730     0.4280    -3.9760 hn         1 G9B       0.462300
     57 H29         -0.7790    -0.4460    -8.4270 h4         1 G9B       0.171000
     58 H30         -3.0940    -0.3560    -4.8040 h4         1 G9B       0.070100
     59 H33         -4.4840    -0.4070    -9.4090 h1         1 G9B       0.081700
     60 H34         -4.0370    -2.8070    -9.1190 hc         1 G9B       0.061700
     61 H34A        -2.3910    -2.5870    -9.7370 hc         1 G9B       0.061700
     62 H35         -2.6890     1.1130   -10.1240 hc         1 G9B       0.061700
     63 H35A        -1.5910    -0.2630   -10.3330 hc         1 G9B       0.061700
     64 H36         -3.8830    -3.4230   -11.5140 h1         1 G9B       0.039950
     65 H36A        -4.9550    -2.0320   -11.2720 h1         1 G9B       0.039950
     66 H37         -4.1940     0.1800   -11.8400 h1         1 G9B       0.039950
     67 H37A        -2.5640     0.4100   -12.4970 h1         1 G9B       0.039950
     68 H39         -3.3860    -2.8630   -13.7640 h1         1 G9B       0.034700
     69 H39A        -4.5050    -1.4950   -13.6820 h1         1 G9B       0.034700
     70 H39B        -2.8270    -1.2370   -14.1800 h1         1 G9B       0.034700
@<TRIPOS>BOND
     1     1     2 ar
     2     1     3 ar
     3     1     7 1
     4     2     4 ar
     5     2     9 1
     6     3     5 ar
     7     4     6 ar
     8     5     6 ar
     9     7     8 1
    10     7    10 1
    11     8     9 2
    12     8    21 1
    13    10    11 ar
    14    10    12 ar
    15    11    13 ar
    16    12    14 ar
    17    13    15 ar
    18    13    16 1
    19    14    15 ar
    20    16    17 1
    21    17    18 1
    22    17    19 2
    23    18    20 1
    24    21    22 ar
    25    21    23 ar
    26    22    24 ar
    27    23    25 ar
    28    23    27 1
    29    24    26 ar
    30    24    28 1
    31    25    26 ar
    32    28    29 2
    33    28    30 1
    34    29    31 1
    35    30    32 2
    36    31    32 1
    37    31    33 1
    38    33    34 1
    39    33    35 1
    40    34    36 1
    41    35    37 1
    42    36    38 1
    43    37    38 1
    44    38    39 1
    45     3    40 1
    46     4    41 1
    47     5    42 1
    48     6    43 1
    49    11    44 1
    50    12    45 1
    51    14    46 1
    52    15    47 1
    53    16    48 1
    54    18    49 1
    55    18    50 1
    56    20    51 1
    57    20    52 1
    58    20    53 1
    59    26    54 1
    60    27    55 1
    61    27    56 1
    62    29    57 1
    63    30    58 1
    64    33    59 1
    65    34    60 1
    66    34    61 1
    67    35    62 1
    68    35    63 1
    69    36    64 1
    70    36    65 1
    71    37    66 1
    72    37    67 1
    73    39    68 1
    74    39    69 1
    75    39    70 1
@<TRIPOS>SUBSTRUCTURE
     1 G9B         1 TEMP              0 ****  ****    0 ROOT
