@<TRIPOS>MOLECULE
molecule
   37    40     1     0     0
SMALL
bcc


@<TRIPOS>ATOM
      1 N11          0.0000     0.0000     0.0000 n3         1 G9D      -0.712600
      2 N12         -2.5390     0.4150    -0.1100 nc         1 G9D      -0.453300
      3 N13         -3.8580     0.6390     0.2710 ns         1 G9D      -0.312900
      4 N14         -3.0100     0.3970    -4.7810 na         1 G9D      -0.176400
      5 OAA         -6.0160     0.9910     0.1790 o          1 G9D      -0.641500
      6 CAB         -6.5820     1.0010    -3.7880 ca         1 G9D      -0.124000
      7 CAC         -5.5440     0.8120    -4.6780 ca         1 G9D      -0.113000
      8 CAD         -6.3820     0.9960    -2.4130 ca         1 G9D      -0.087000
      9 CAE         -2.0500     0.2600    -3.8080 cc         1 G9D      -0.066100
     10 CAF          1.9750     0.0000     1.4460 c3         1 G9D       0.141400
     11 CAG          0.0030    -1.1620     2.1540 c3         1 G9D       0.141400
     12 CAH          1.4700     0.0000     0.0000 c3         1 G9D       0.118300
     13 CAI         -0.5210    -1.1740     0.7160 c3         1 G9D       0.118300
     14 CAJ         -0.5260     0.0580    -1.3700 c3         1 G9D       0.136500
     15 OAN          1.4340    -1.1310     2.1340 os         1 G9D      -0.428600
     16 CAO         -1.9660     0.2980    -1.2700 cd         1 G9D       0.464600
     17 CAP         -4.9910     0.8090    -0.4460 c          1 G9D       0.699100
     18 CAQ         -4.2470     0.6100    -4.2100 ca         1 G9D      -0.043200
     19 CAR         -2.6190     0.3770    -2.5900 cd         1 G9D      -0.260800
     20 CAS         -5.1010     0.7980    -1.9220 ca         1 G9D      -0.107600
     21 CAT         -4.0500     0.6070    -2.8300 ca         1 G9D      -0.060800
     22 HN13        -3.9940     0.6820     1.2620 hn         1 G9D       0.356500
     23 HAB         -7.5820     1.1570    -4.1730 ha         1 G9D       0.137000
     24 HAC         -5.7370     0.8220    -5.7440 ha         1 G9D       0.130000
     25 HAD         -7.2140     1.1470    -1.7350 ha         1 G9D       0.168000
     26 HAE         -0.9970     0.0850    -3.9910 h4         1 G9D       0.170000
     27 HAF          1.6550     0.9100     1.9400 h1         1 G9D       0.054200
     28 HAFA         3.0560    -0.0590     1.4510 h1         1 G9D       0.054200
     29 HAG         -0.3700    -0.2840     2.6670 h1         1 G9D       0.054200
     30 HAGA        -0.3310    -2.0560     2.6670 h1         1 G9D       0.054200
     31 HAH          1.8310     0.8860    -0.5080 h1         1 G9D       0.045950
     32 HAHA         1.8310    -0.8860    -0.5080 h1         1 G9D       0.045950
     33 HAI         -0.1880    -2.0760     0.2180 h1         1 G9D       0.045950
     34 HAIA        -1.6030    -1.1380     0.7270 h1         1 G9D       0.045950
     35 HAJ         -0.0420     0.8640    -1.9090 h1         1 G9D       0.052200
     36 HAJA        -0.3290    -0.8820    -1.8720 h1         1 G9D       0.052200
     37 HN14        -2.8370     0.3490    -5.7650 hn         1 G9D       0.300700
@<TRIPOS>BOND
     1    13     1 1
     2    12     1 1
     3     1    14 1
     4    16     2 2
     5     2     3 1
     6     3    17 1
     7     3    22 1
     8     9     4 1
     9     4    18 1
    10    17     5 2
    11     7     6 ar
    12     6     8 ar
    13     6    23 1
    14    18     7 ar
    15     7    24 1
    16    20     8 ar
    17     8    25 1
    18     9    19 2
    19     9    26 1
    20    15    10 1
    21    10    12 1
    22    10    27 1
    23    10    28 1
    24    15    11 1
    25    11    13 1
    26    11    29 1
    27    11    30 1
    28    12    31 1
    29    12    32 1
    30    13    33 1
    31    13    34 1
    32    14    16 1
    33    14    35 1
    34    14    36 1
    35    16    19 1
    36    20    17 1
    37    18    21 ar
    38    19    21 1
    39    21    20 ar
    40     4    37 1
@<TRIPOS>SUBSTRUCTURE
     1 G9D         1 TEMP              0 ****  ****    0 ROOT
