@<TRIPOS>MOLECULE
G9F
   52    50     1     0     0
SMALL
bcc


@<TRIPOS>ATOM
      1 N11         0.5230    1.6830   -3.1340 n4        1 G9F     -0.079000
      2 N12        -1.9650    4.2950   -6.3890 n2        1 G9F     -0.134000
      3 N13        -0.8310    5.5470   -7.9410 na        1 G9F     -0.116000
      4 N14        -1.0330    5.9110  -10.8220 n         1 G9F     -0.315000
      5 CAA         0.7010    2.5000   -1.9170 c3        1 G9F     -0.185500
      6 CAB         1.6070    0.6860   -3.2550 c3        1 G9F     -0.185500
      7 CAD        -6.4310    7.9110   -9.0560 c2        1 G9F     -0.062000
      8 CAE        -4.0260    7.0210   -9.1100 c1        1 G9F     -0.011000
      9 CAF         5.1790    2.3150   -4.8090 c1        1 G9F     -0.201000
     10 CAG        -5.6890    4.4760   -2.4790 c1        1 G9F     -0.221000
     11 CAH         0.5710    3.3400   -5.2680 c1        1 G9F      0.107000
     12 CAI        -6.1930    3.5000   -2.9530 c1        1 G9F     -0.221000
     13 CAJ        -5.2100    7.4520   -9.0800 c1        1 G9F     -0.117000
     14 CAK        -1.9510    1.9570   -3.2270 c2        1 G9F     -0.243000
     15 CAL         0.2580    5.9240  -10.1820 c3        1 G9F     -0.070000
     16 CAM        -2.9750    1.9390   -2.3760 c2        1 G9F     -0.144000
     17 CAN        -0.8090    1.0020   -3.1320 c3        1 G9F     -0.087000
     18 CAO         0.2380    6.1920   -8.6530 c3        1 G9F     -0.080000
     19 OAR         3.7730    3.2630   -2.9420 oh        1 G9F     -0.195000
     20 CAS        -1.9140    6.9430  -10.3500 c2        1 G9F      0.315000
     21 CAT         4.5450    2.7790   -3.9100 c1        1 G9F     -0.108000
     22 CAU         0.5120    4.1710   -6.2780 c2        1 G9F     -0.248000
     23 CAV        -2.7840    6.5830   -9.1840 c2        1 G9F     -0.091000
     24 CAW        -0.7260    4.6570   -6.8530 c2        1 G9F     -0.043000
     25 CAX        -2.8760    4.9530   -7.1810 c2        1 G9F     -0.140000
     26 CAY        -2.2040    5.7410   -8.1590 c2        1 G9F     -0.021000
     27 HN14       -1.4740    5.0120  -10.7600 hn        1 G9F      0.189000
     28 HAA        -0.1430    3.2360   -1.8460 hx        1 G9F      0.128833
     29 HAAA        0.7040    1.8480   -1.0040 hx        1 G9F      0.128833
     30 HAAB        1.6790    3.0490   -1.9860 hx        1 G9F      0.128833
     31 HAB         1.5760   -0.0330   -2.3950 hx        1 G9F      0.128833
     32 HABA        2.5960    1.2210   -3.2580 hx        1 G9F      0.128833
     33 HABB        1.4850    0.1200   -4.2160 hx        1 G9F      0.128833
     34 HAD        -7.1230    7.6930   -8.2270 ha        1 G9F      0.153500
     35 HAE        -6.8300    8.5420   -9.8670 ha        1 G9F      0.153500
     36 HAF         5.7500    1.8970   -5.6000 ha        1 G9F      0.254000
     37 HAG        -5.2570    5.3480   -2.0570 ha        1 G9F      0.222500
     38 HAH         1.4680    4.5310   -6.7240 ha        1 G9F      0.223000
     39 HAI        -6.6530    2.6400   -3.3730 ha        1 G9F      0.222500
     40 HAJ        -3.9530    4.8510   -7.0410 h4        1 G9F      0.200000
     41 HAK         4.3570    3.8080   -2.3790 ho        1 G9F      0.251000
     42 HAKA       -1.9310    2.6450   -4.0900 ha        1 G9F      0.156000
     43 HAL         0.7690    4.9440  -10.3880 h1        1 G9F      0.120000
     44 HALA        0.8710    6.7510  -10.6450 h1        1 G9F      0.120000
     45 HAM        -3.8440    2.6090   -2.4980 ha        1 G9F      0.138000
     46 HAMA       -3.0320    1.2570   -1.5150 ha        1 G9F      0.138000
     47 HAN        -0.8360    0.3140   -4.0280 hx        1 G9F      0.126500
     48 HANA       -0.8840    0.3710   -2.2000 hx        1 G9F      0.126500
     49 HAO         0.1370    7.3070   -8.4880 h1        1 G9F      0.115000
     50 HAOA        1.2240    5.8640   -8.2250 h1        1 G9F      0.115000
     51 H111        0.5660    2.3720   -4.0280 hn        1 G9F      0.330000
     52 OAC        -1.9360    8.0560  -10.8800 o         1 G9F     -0.230000
@<TRIPOS>BOND
     1    1    5 1   
     2    1    6 1   
     3    1   17 1   
     4    1   51 1   
     5    2   24 1   
     6    2   25 1   
     7    3   18 1   
     8    3   24 1   
     9    3   26 1   
    10    4   15 1   
    11    4   20 1   
    12    4   27 1   
    13    5   28 1   
    14    5   29 1   
    15    5   30 1   
    16    6   31 1   
    17    6   32 1   
    18    6   33 1   
    19    7   13 1   
    20    7   34 1   
    21    7   35 1   
    22    8   13 1   
    23    8   23 1   
    24    9   21 1   
    25    9   36 1   
    26   10   12 1   
    27   10   37 1   
    28   11   22 1   
    29   12   39 1   
    30   14   16 1   
    31   14   17 1   
    32   14   42 1   
    33   15   18 1   
    34   15   43 1   
    35   15   44 1   
    36   16   45 1   
    37   16   46 1   
    38   17   47 1   
    39   17   48 1   
    40   18   49 1   
    41   18   50 1   
    42   19   21 1   
    43   19   41 1   
    44   20   23 1   
    45   20   52 1   
    46   22   24 1   
    47   22   38 1   
    48   23   26 1   
    49   25   26 1   
    50   25   40 1   
@<TRIPOS>SUBSTRUCTURE
     1 G9F         1 TEMP              0 ****  ****    0 ROOT
