@<TRIPOS>MOLECULE
molecule
   51    54     1     0     0
SMALL
bcc


@<TRIPOS>ATOM
      1 N11          0.0000     0.0000     0.0000 n3         1 G9F      -0.728600
      2 N12         -1.3040     4.6260   -10.0810 nc         1 G9F      -0.605100
      3 N13         -1.6800     6.2300    -8.6370 na         1 G9F      -0.152300
      4 N14         -2.5560     9.1930    -8.1740 ns         1 G9F      -0.580900
      5 CAA          1.4690     0.0000     0.0000 c3         1 G9F       0.149600
      6 CAB         -0.5260     0.0000     1.3730 c3         1 G9F       0.149600
      7 CAD         -2.1980     7.2020   -12.6160 ca         1 G9F      -0.162000
      8 CAE         -2.5700     8.1850   -11.7190 ca         1 G9F      -0.052000
      9 CAF          0.0960     1.9670    -6.9680 ca         1 G9F      -0.249000
     10 CAG         -1.0240     3.3980    -5.3880 ca         1 G9F      -0.249000
     11 CAH         -0.2280     2.8340    -7.9890 ca         1 G9F      -0.053000
     12 CAI         -1.3520     4.2690    -6.4030 ca         1 G9F      -0.053000
     13 CAJ         -1.7790     5.9640   -12.1730 ca         1 G9F      -0.049000
     14 CAK         -0.1640     0.9700    -2.2420 c3         1 G9F      -0.125400
     15 CAL         -1.4370     8.4600    -7.6330 c3         1 G9F       0.086000
     16 CAM         -0.7130     2.1540    -3.0390 c3         1 G9F       0.395400
     17 CAN         -0.5270     1.1370    -0.7650 c3         1 G9F       0.166800
     18 CAO         -1.7290     6.9950    -7.4150 c3         1 G9F       0.019300
     19 OAR         -0.3730     1.9990    -4.4190 os         1 G9F      -0.653900
     20 CAS         -3.0240     8.9670    -9.4180 c          1 G9F       0.714100
     21 CAT         -0.3000     2.2460    -5.6650 ca         1 G9F       0.420100
     22 CAU         -0.9560     3.9930    -7.7120 ca         1 G9F      -0.192900
     23 CAV         -2.5110     7.9500   -10.3420 ca         1 G9F      -0.143600
     24 CAW         -1.3050     4.9250    -8.8050 cd         1 G9F       0.506400
     25 CAX         -1.6880     5.7100   -10.8010 ca         1 G9F       0.089400
     26 CAY         -1.9970     6.7290    -9.8870 ca         1 G9F      -0.070200
     27 HN14        -2.9980     9.8900    -7.6090 hn         1 G9F       0.330500
     28 HAA          1.8300     1.0210    -0.0240 h1         1 G9F       0.034533
     29 HAAA         1.8300    -0.5310    -0.8720 h1         1 G9F       0.034533
     30 HAAB         1.8300    -0.4900     0.8960 h1         1 G9F       0.034533
     31 HAB         -0.2310     0.9150     1.8720 h1         1 G9F       0.034533
     32 HABA        -0.1260    -0.8500     1.9120 h1         1 G9F       0.034533
     33 HABB        -1.6070    -0.0650     1.3450 h1         1 G9F       0.034533
     34 HAD         -2.2370     7.4050   -13.6790 ha         1 G9F       0.138000
     35 HAE         -2.8960     9.1510   -12.0860 ha         1 G9F       0.153000
     36 HAF          0.6600     1.0670    -7.1810 ha         1 G9F       0.137500
     37 HAG         -1.3310     3.6120    -4.3710 ha         1 G9F       0.137500
     38 HAH          0.0810     2.6160    -9.0040 ha         1 G9F       0.143000
     39 HAI         -1.9170     5.1680    -6.1850 ha         1 G9F       0.143000
     40 HAJ         -1.4910     5.2020   -12.8870 ha         1 G9F       0.144000
     41 HAK         -0.5960     0.0500    -2.6180 hc         1 G9F       0.070700
     42 HAKA         0.9140     0.9320    -2.3470 hc         1 G9F       0.070700
     43 HAL         -1.1620     8.9020    -6.6830 h1         1 G9F       0.061700
     44 HALA        -0.6030     8.5480    -8.3180 h1         1 G9F       0.061700
     45 HAM         -0.2810     3.0740    -2.6620 h1         1 G9F       0.033200
     46 HAMA        -1.7900     2.1920    -2.9350 h1         1 G9F       0.033200
     47 HAN         -1.6050     1.1750    -0.6600 h1         1 G9F       0.033700
     48 HANA        -0.0960     2.0570    -0.3890 h1         1 G9F       0.033700
     49 HAO         -0.9980     6.5940    -6.7230 h1         1 G9F       0.066700
     50 HAOA        -2.7180     6.8980    -6.9830 h1         1 G9F       0.066700
     51 OAC         -3.9430     9.6620    -9.8060 o          1 G9F      -0.644500
@<TRIPOS>BOND
     1     5     1 1
     2     6     1 1
     3     1    17 1
     4    24     2 2
     5     2    25 1
     6    24     3 1
     7    18     3 1
     8     3    26 1
     9    15     4 1
    10     4    20 1
    11     4    27 1
    12     5    28 1
    13     5    29 1
    14     5    30 1
    15     6    31 1
    16     6    32 1
    17     6    33 1
    18    20    51 2
    19    13     7 ar
    20     7     8 ar
    21     7    34 1
    22    23     8 ar
    23     8    35 1
    24     9    21 ar
    25     9    11 ar
    26     9    36 1
    27    21    10 ar
    28    10    12 ar
    29    10    37 1
    30    11    22 ar
    31    11    38 1
    32    22    12 ar
    33    12    39 1
    34    25    13 ar
    35    13    40 1
    36    17    14 1
    37    14    16 1
    38    14    41 1
    39    14    42 1
    40    15    18 1
    41    15    43 1
    42    15    44 1
    43    16    19 1
    44    16    45 1
    45    16    46 1
    46    17    47 1
    47    17    48 1
    48    18    49 1
    49    18    50 1
    50    19    21 1
    51    23    20 1
    52    22    24 1
    53    26    23 ar
    54    25    26 ar
@<TRIPOS>SUBSTRUCTURE
     1 G9F         1 TEMP              0 ****  ****    0 ROOT
