@<TRIPOS>MOLECULE
molecule
   40    43     1     0     0
SMALL
bcc


@<TRIPOS>ATOM
      1 N11          0.0000     0.0000     0.0000 n3         1 G9G      -0.721600
      2 N12          1.4530    -1.1810     2.1450 nh         1 G9G      -0.693300
      3 N13          3.4540    -1.4260     7.2730 ns         1 G9G      -0.436100
      4 N14          2.7820    -0.3230     3.8730 nb         1 G9G      -0.707000
      5 CAA         -0.5270     1.2380     0.5900 c3         1 G9G       0.141100
      6 OAB          4.7300    -0.5710     8.8730 o          1 G9G      -0.634500
      7 CAC          5.9440     2.6530     6.4980 ca         1 G9G      -0.136000
      8 CAD          5.4400     2.7260     5.2080 ca         1 G9G      -0.109000
      9 CAE          1.5670    -2.3110     4.2680 ca         1 G9G      -0.228300
     10 CAF          5.5850     1.6160     7.3350 ca         1 G9G      -0.066000
     11 CAG          4.5720     1.7620     4.7380 ca         1 G9G      -0.105000
     12 CAH          2.0630    -2.3810     5.5540 ca         1 G9G      -0.125000
     13 CAI          1.4690     0.0000     0.0000 c3         1 G9G       0.158800
     14 CAJ         -0.5230    -1.1810     0.7000 c3         1 G9G       0.158800
     15 CAK          1.9770     0.0000     1.4440 c3         1 G9G       0.127800
     16 CAL         -0.0170    -1.1820     2.1440 c3         1 G9G       0.127800
     17 CAO          1.9520    -1.2540     3.4410 ca         1 G9G       0.593200
     18 CAP          4.3000    -0.4890     7.7370 c          1 G9G       0.712100
     19 CAQ          2.9390    -1.3840     5.9870 ca         1 G9G      -0.060700
     20 CAR          4.7090     0.6330     6.8780 ca         1 G9G      -0.139600
     21 CAS          4.1990     0.7080     5.5660 ca         1 G9G      -0.104500
     22 CAT          3.2820    -0.3530     5.1040 ca         1 G9G       0.457800
     23 HN13         3.1870    -2.1780     7.8770 hn         1 G9G       0.337500
     24 HAA         -0.0880     2.0920     0.0890 h1         1 G9G       0.034700
     25 HAAA        -1.6030     1.2640     0.4730 h1         1 G9G       0.034700
     26 HAAB        -0.2780     1.2700     1.6440 h1         1 G9G       0.034700
     27 HAC          6.6240     3.4170     6.8530 ha         1 G9G       0.137000
     28 HAD          5.7320     3.5460     4.5640 ha         1 G9G       0.135000
     29 HAE          0.9990    -3.1380     3.8600 ha         1 G9G       0.151000
     30 HAF          5.9820     1.5660     8.3410 ha         1 G9G       0.158000
     31 HAG          4.1830     1.8250     3.7290 ha         1 G9G       0.154000
     32 HAH          1.7780    -3.1930     6.2130 ha         1 G9G       0.144000
     33 HAI          1.8290     0.8860    -0.5080 h1         1 G9G       0.064450
     34 HAIA         1.8290    -0.8860    -0.5080 h1         1 G9G       0.064450
     35 HAJ         -0.1820    -2.0780     0.1980 h1         1 G9G       0.064450
     36 HAJA        -1.6060    -1.1500     0.6990 h1         1 G9G       0.064450
     37 HAK          1.6350     0.8970     1.9460 h1         1 G9G       0.052450
     38 HAKA         3.0590    -0.0310     1.4450 h1         1 G9G       0.052450
     39 HAL         -0.3760    -2.0690     2.6520 h1         1 G9G       0.052450
     40 HALA        -0.3780    -0.2970     2.6530 h1         1 G9G       0.052450
@<TRIPOS>BOND
     1     5     1 1
     2     1    13 1
     3     1    14 1
     4    16     2 1
     5    15     2 1
     6     2    17 1
     7    19     3 1
     8     3    18 1
     9     3    23 1
    10    17     4 ar
    11     4    22 ar
    12     5    24 1
    13     5    25 1
    14     5    26 1
    15    18     6 2
    16     8     7 ar
    17     7    10 ar
    18     7    27 1
    19    11     8 ar
    20     8    28 1
    21    17     9 ar
    22     9    12 ar
    23     9    29 1
    24    20    10 ar
    25    10    30 1
    26    11    21 ar
    27    11    31 1
    28    12    19 ar
    29    12    32 1
    30    13    15 1
    31    13    33 1
    32    13    34 1
    33    14    16 1
    34    14    35 1
    35    14    36 1
    36    15    37 1
    37    15    38 1
    38    16    39 1
    39    16    40 1
    40    20    18 1
    41    22    19 ar
    42    21    20 ar
    43    22    21 1
@<TRIPOS>SUBSTRUCTURE
     1 G9G         1 TEMP              0 ****  ****    0 ROOT
