@<TRIPOS>MOLECULE
G9H
   34    36     1     0     0
SMALL
bcc


@<TRIPOS>ATOM
      1 N11          0.0000     0.0000     0.0000 n3         1 G9H      -0.530600
      2 N12         -0.9000     0.3580    -3.1050 nc         1 G9H      -0.486100
      3 N13          0.9670     1.4410    -2.8020 na         1 G9H       0.309700
      4 N14          3.5680     2.6010    -4.0810 ns         1 G9H      -0.192900
      5 CAA          1.4700     0.0000     0.0000 c3         1 G9H       0.174100
      6 CAB         -0.5260     0.0000     1.3710 c3         1 G9H       0.174100
      7 CAD          0.2580     0.0930    -6.6350 ca         1 G9H      -0.140000
      8 CAE          1.3680     0.9040    -6.4970 ca         1 G9H      -0.015000
      9 CAF         -0.5800    -0.1450    -5.5660 ca         1 G9H      -0.007000
     10 CAG          3.3970     1.8150    -2.8820 c3         1 G9H       0.037000
     11 CAH          2.0950     2.0850    -2.1700 c3         1 G9H      -0.097700
     12 CAI         -0.5270     1.1370    -0.7660 c3         1 G9H       0.161500
     13 CAL          2.7980     2.4240    -5.1720 c          1 G9H       0.637100
     14 CAM          1.6730     1.4880    -5.2640 ca         1 G9H      -0.140600
     15 CAN         -0.1690     0.9710    -2.2210 cd         1 G9H       0.220800
     16 CAO         -0.2830     0.4020    -4.3140 ca         1 G9H       0.048400
     17 CAP          0.8700     1.1860    -4.1580 ca         1 G9H      -0.231200
     18 HN14         4.2830     3.3010    -4.1020 hn         1 G9H       0.188500
     19 HAA          1.8310     0.9780     0.2960 h1         1 G9H       0.004533
     20 HAAA         1.8310    -0.7450     0.6990 h1         1 G9H       0.004533
     21 HAAB         1.8310    -0.2330    -0.9950 h1         1 G9H       0.004533
     22 HAB         -1.6090    -0.0250     1.3420 h1         1 G9H       0.004533
     23 HABA        -0.1990     0.8970     1.8830 h1         1 G9H       0.004533
     24 HABB        -0.1580    -0.8720     1.8990 h1         1 G9H       0.004533
     25 HAD          0.0430    -0.3610    -7.5940 ha         1 G9H       0.109000
     26 HAE          2.0150     1.0790    -7.3490 ha         1 G9H       0.121000
     27 HAF         -1.4470    -0.7830    -5.6870 ha         1 G9H       0.110000
     28 HAG          3.4340     0.7660    -3.1480 h1         1 G9H       0.031200
     29 HAGA         4.2130     2.0360    -2.2040 h1         1 G9H       0.031200
     30 HAH          2.1740     1.7240    -1.1510 h1         1 G9H       0.048200
     31 HAHA         1.9210     3.1540    -2.1550 h1         1 G9H       0.048200
     32 HAI         -0.0960     2.0570    -0.3910 h1         1 G9H       0.021200
     33 HAIA        -1.6050     1.1740    -0.6620 h1         1 G9H       0.021200
     34 OAC          3.0550     3.0910    -6.1550 o          1 G9H      -0.679500
@<TRIPOS>BOND
     1     1     5 1   
     2     1     6 1   
     3     1    12 1   
     4     2    15 2   
     5     2    16 1   
     6     3    11 1   
     7     3    15 1   
     8     3    17 1   
     9     4    10 1   
    10     4    13 1   
    11     4    18 1   
    12     5    19 1   
    13     5    20 1   
    14     5    21 1   
    15     6    22 1   
    16     6    23 1   
    17     6    24 1   
    18     7     8 ar  
    19     7     9 ar  
    20     7    25 1   
    21     8    14 ar  
    22     8    26 1   
    23     9    16 ar  
    24     9    27 1   
    25    10    11 1   
    26    10    28 1   
    27    10    29 1   
    28    11    30 1   
    29    11    31 1   
    30    12    15 1   
    31    12    32 1   
    32    12    33 1   
    33    13    14 1   
    34    13    34 2   
    35    14    17 ar  
    36    16    17 ar  
@<TRIPOS>SUBSTRUCTURE
     1 G9H         1 TEMP              0 ****  ****    0 ROOT
