@<TRIPOS>MOLECULE
molecule
   54    58     1     0     0
SMALL
bcc


@<TRIPOS>ATOM
      1 N11          0.0000     0.0000     0.0000 n3         1 G9I      -0.698600
      2 N12         -8.8220     0.4380    -3.5580 nc         1 G9I      -0.595100
      3 N13         -9.2080    -1.2520    -2.2370 na         1 G9I      -0.153300
      4 N14        -11.3340    -3.0500    -0.8230 ns         1 G9I      -0.580900
      5 CAB        -12.5330     0.7540    -3.6290 ca         1 G9I      -0.163000
      6 CAC        -12.8020    -0.3980    -2.9150 ca         1 G9I      -0.048000
      7 CAD         -3.8630     0.6920    -2.1260 ca         1 G9I      -0.125000
      8 CAE         -4.2510    -1.1690    -0.6700 ca         1 G9I      -0.125000
      9 CAF         -2.5000     0.4890    -2.0230 ca         1 G9I      -0.113000
     10 CAG         -2.8880    -1.3800    -0.5760 ca         1 G9I      -0.113000
     11 CAH        -11.2340     1.1210    -3.9140 ca         1 G9I      -0.044000
     12 CAI          1.9300     0.0000     1.4730 c3         1 G9I      -0.088400
     13 CAJ          0.6220    -0.0330     2.2960 c3         1 G9I      -0.088400
     14 CAK        -10.1520    -2.4190    -0.2880 c3         1 G9I       0.089000
     15 CAM         -6.7730    -0.7220    -2.7410 c3         1 G9I      -0.079700
     16 CAN          1.4790     0.0000     0.0000 c3         1 G9I       0.143800
     17 CAO         -0.4050    -0.6120     1.2900 c3         1 G9I       0.143800
     18 CAP         -9.0220    -2.3200    -1.2840 c3         1 G9I       0.022300
     19 CAQ         -0.5250    -0.7690    -1.1360 c3         1 G9I       0.199100
     20 CAT        -12.0780    -2.4770    -1.7910 c          1 G9I       0.714100
     21 CAU         -4.7380    -0.1370    -1.4500 ca         1 G9I      -0.091300
     22 CAV         -2.0120    -0.5470    -1.2470 ca         1 G9I      -0.076300
     23 CAW        -11.7600    -1.2100    -2.4560 ca         1 G9I      -0.143600
     24 CAX         -8.2590    -0.5000    -2.8550 cd         1 G9I       0.430800
     25 CAY        -10.1720     0.3450    -3.4410 ca         1 G9I       0.082400
     26 CAZ        -10.4390    -0.8000    -2.6750 ca         1 G9I      -0.068200
     27 HN14       -11.6110    -3.9420    -0.4640 hn         1 G9I       0.332500
     28 HAB        -13.3510     1.3760    -3.9690 ha         1 G9I       0.140000
     29 HAC        -13.8290    -0.6690    -2.7010 ha         1 G9I       0.154000
     30 HAD         -4.2450     1.5030    -2.7350 ha         1 G9I       0.129500
     31 HAE         -4.9380    -1.8200    -0.1430 ha         1 G9I       0.129500
     32 HAF         -1.8140     1.1410    -2.5500 ha         1 G9I       0.132500
     33 HAG         -2.5060    -2.1900     0.0330 ha         1 G9I       0.132500
     34 HAH        -11.0370     2.0270    -4.4740 ha         1 G9I       0.145000
     35 HAI          2.4890     0.9020     1.6930 hc         1 G9I       0.049200
     36 HAIA         2.5260    -0.8800     1.6820 hc         1 G9I       0.049200
     37 HAJ          0.3370     0.9670     2.5990 hc         1 G9I       0.049200
     38 HAJA         0.7270    -0.6870     3.1530 hc         1 G9I       0.049200
     39 HAK        -10.4120    -1.4190     0.0390 h1         1 G9I       0.062200
     40 HAKA        -9.8110    -2.9920     0.5650 h1         1 G9I       0.062200
     41 HAL         -6.7080    -0.2380    -0.6490 hc         1 G9I       0.056700
     42 HALA        -6.4220     1.1380    -1.7230 hc         1 G9I       0.056700
     43 HAM         -6.5760    -1.7750    -2.5810 hc         1 G9I       0.069700
     44 HAMA        -6.2890    -0.4000    -3.6560 hc         1 G9I       0.069700
     45 HAN          1.8480    -0.8890    -0.4980 h1         1 G9I       0.041700
     46 HANA         1.8480     0.8890    -0.4980 h1         1 G9I       0.041700
     47 HAO         -1.4110    -0.3090     1.5570 h1         1 G9I       0.041700
     48 HAOA        -0.3240    -1.6910     1.2420 h1         1 G9I       0.041700
     49 HAP         -8.0980    -2.1470    -0.7450 h1         1 G9I       0.062200
     50 HAPA        -8.9490    -3.2570    -1.8210 h1         1 G9I       0.062200
     51 HAQ         -0.0420    -0.4420    -2.0480 h1         1 G9I       0.041200
     52 HAQA        -0.3290    -1.8230    -0.9810 h1         1 G9I       0.041200
     53 CAL         -6.2250     0.0850    -1.5630 c3         1 G9I      -0.034100
     54 OAA        -13.0890    -3.0560    -2.1390 o          1 G9I      -0.641500
@<TRIPOS>BOND
     1    17     1 1
     2     1    19 1
     3     1    16 1
     4    25     2 1
     5     2    24 2
     6    26     3 1
     7    18     3 1
     8     3    24 1
     9    20     4 1
    10     4    14 1
    11     4    27 1
    12    54    20 2
    13     6     5 ar
    14     5    11 ar
    15     5    28 1
    16     6    23 ar
    17     6    29 1
    18    21     7 ar
    19     7     9 ar
    20     7    30 1
    21    21     8 ar
    22     8    10 ar
    23     8    31 1
    24     9    22 ar
    25     9    32 1
    26    10    22 ar
    27    10    33 1
    28    11    25 ar
    29    11    34 1
    30    13    12 1
    31    12    16 1
    32    12    35 1
    33    12    36 1
    34    17    13 1
    35    13    37 1
    36    13    38 1
    37    14    18 1
    38    14    39 1
    39    14    40 1
    40    15    53 1
    41    53    21 1
    42    53    41 1
    43    53    42 1
    44    24    15 1
    45    15    43 1
    46    15    44 1
    47    16    45 1
    48    16    46 1
    49    17    47 1
    50    17    48 1
    51    18    49 1
    52    18    50 1
    53    22    19 1
    54    19    51 1
    55    19    52 1
    56    20    23 1
    57    23    26 ar
    58    26    25 ar
@<TRIPOS>SUBSTRUCTURE
     1 G9I         1 TEMP              0 ****  ****    0 ROOT
