@<TRIPOS>MOLECULE
molecule
   43    47     1     0     0
SMALL
bcc


@<TRIPOS>ATOM
      1 C1           0.0000     0.0000     0.0000 c3         1 G9K       0.126700
      2 C10          1.7920     0.1120     6.1630 cc         1 G9K       0.240800
      3 C11          1.1700     0.2200     7.3740 cd         1 G9K      -0.194600
      4 C12          3.3520     0.2660     7.6660 cd         1 G9K       0.515300
      5 C13          4.6790     0.3410     8.3080 cd         1 G9K      -0.199000
      6 C14          4.9320     0.4570     9.6370 cc         1 G9K      -0.092100
      7 C15          6.9510     0.4030     8.6490 ca         1 G9K      -0.043200
      8 C16          5.9860     0.2990     7.6330 ca         1 G9K      -0.071800
      9 C17          6.3850     0.1860     6.3020 ca         1 G9K      -0.062000
     10 C18          7.7260     0.1760     5.9900 ca         1 G9K      -0.154000
     11 C19          8.6800     0.2780     6.9930 ca         1 G9K      -0.103000
     12 C2           2.0460     0.0000     1.2110 ca         1 G9K       0.063800
     13 C20          8.3000     0.3900     8.3130 ca         1 G9K      -0.149000
     14 C21          1.2930    -0.0050     2.3720 ca         1 G9K      -0.161000
     15 C3           3.4350     0.0010     1.2850 ca         1 G9K       0.209700
     16 C4           4.0710    -0.0050     2.5250 ca         1 G9K       0.223700
     17 C5           6.1090    -0.3020     1.4350 cd         1 G9K       0.158300
     18 C6           5.5070    -0.2970     0.2640 cc         1 G9K       0.167300
     19 C7           3.3270    -0.0100     3.6850 ca         1 G9K      -0.177300
     20 C8           1.9280    -0.0110     3.6160 ca         1 G9K      -0.132600
     21 C9           1.1270    -0.0170     4.8550 c          1 G9K       0.534200
     22 N1           2.1490     0.3170     8.3160 na         1 G9K      -0.297900
     23 N2           6.2770     0.4900     9.8490 na         1 G9K      -0.171400
     24 N3           3.1300     0.1490     6.3780 nc         1 G9K      -0.678000
     25 O1           1.4280     0.0000     0.0000 os         1 G9K      -0.313900
     26 O2           5.4310    -0.0040     2.5750 os         1 G9K      -0.399800
     27 O3           4.1860     0.0060     0.1510 os         1 G9K      -0.384800
     28 O4          -0.0830    -0.1270     4.7960 o          1 G9K      -0.545100
     29 H1          -0.3610     0.0030    -1.0210 h1         1 G9K       0.043033
     30 H2          -0.3610    -0.8860     0.5080 h1         1 G9K       0.043033
     31 H3          -0.3610     0.8830     0.5130 h1         1 G9K       0.043033
     32 H4           0.1010     0.2280     7.5510 h4         1 G9K       0.193000
     33 H5           4.1770     0.5140    10.4130 h4         1 G9K       0.158000
     34 H6           5.6430     0.1060     5.5160 ha         1 G9K       0.158000
     35 H7           8.0380     0.0890     4.9560 ha         1 G9K       0.135000
     36 H8           9.7320     0.2690     6.7360 ha         1 G9K       0.131000
     37 H9           9.0530     0.4700     9.0880 ha         1 G9K       0.125000
     38 H10          0.2110    -0.0060     2.3160 ha         1 G9K       0.161000
     39 H11          7.1630    -0.5470     1.4900 h4         1 G9K       0.045100
     40 H12          6.0740    -0.5390    -0.6270 h4         1 G9K       0.046100
     41 H13          3.8230    -0.0140     4.6490 ha         1 G9K       0.206000
     42 H14          2.0130     0.4090     9.3030 hn         1 G9K       0.301700
     43 H15          6.7140     0.5710    10.7450 hn         1 G9K       0.299700
@<TRIPOS>BOND
     1    23     6 1
     2    23     7 1
     3    13     7 ar
     4    13    11 ar
     5     6     5 2
     6     7     8 ar
     7    11    10 ar
     8     5     8 1
     9     5     4 1
    10     8     9 ar
    11    10     9 ar
    12    22     4 1
    13    22     3 1
    14     4    24 2
    15     3     2 2
    16    24     2 1
    17     2    21 1
    18     1    25 1
    19    21    28 2
    20    21    20 1
    21    14    20 ar
    22    14    12 ar
    23    25    12 1
    24    20    19 ar
    25    12    15 ar
    26    19    16 ar
    27    15    16 ar
    28    15    27 1
    29    16    26 1
    30    27    18 1
    31    26    17 1
    32    18    17 2
    33     1    29 1
    34     1    30 1
    35     1    31 1
    36     3    32 1
    37     6    33 1
    38     9    34 1
    39    10    35 1
    40    11    36 1
    41    13    37 1
    42    14    38 1
    43    17    39 1
    44    18    40 1
    45    19    41 1
    46    22    42 1
    47    23    43 1
@<TRIPOS>SUBSTRUCTURE
     1 G9K         1 TEMP              0 ****  ****    0 ROOT
