@<TRIPOS>MOLECULE
G9L
   50    53     1     0     0
SMALL
bcc


@<TRIPOS>ATOM
      1 N11          0.0000     0.0000     0.0000 n3         1 G9L      -0.547600
      2 N12         -3.8900    -0.7530    -2.9020 n          1 G9L      -0.164800
      3 N13         -7.5540     1.0900    -3.4260 ns         1 G9L       0.029900
      4 OAA         -1.8270    -0.4440    -3.6570 o          1 G9L      -0.643100
      5 CAD         -6.2780    -0.3030    -8.0520 ca         1 G9L      -0.097000
      6 CAE         -5.7050    -0.4810    -6.8240 ca         1 G9L      -0.092000
      7 CAF         -8.1080     0.9270    -7.0850 ca         1 G9L      -0.056000
      8 CAG          1.4500     1.2410     2.1660 c3         1 G9L      -0.026400
      9 CAH          1.9800     0.0000     1.4420 c3         1 G9L      -0.024400
     10 CAI         -0.0800     1.2420     2.1090 c3         1 G9L      -0.024400
     11 CAJ         -2.0350    -0.3860    -1.3060 c3         1 G9L      -0.111400
     12 CAK         -5.8230     0.2890    -1.8850 c3         1 G9L       0.012800
     13 CAL          1.4690     0.0000     0.0000 c3         1 G9L       0.152800
     14 CAM         -0.5320     1.2050     0.6480 c3         1 G9L       0.152800
     15 CAN         -0.5260    -0.1400    -1.3650 c3         1 G9L       0.166800
     16 CAO         -4.8290    -0.8640    -1.7730 c3         1 G9L       0.049000
     17 CAP         -4.4530    -0.8920    -4.2490 c3         1 G9L       0.127200
     18 CAR         -2.5750    -0.5300    -2.7060 c          1 G9L       0.596100
     19 CAS         -7.4730     0.3960    -8.1900 ca         1 G9L       0.082900
     20 CAT         -6.3660     0.4050    -3.2890 cc         1 G9L      -0.119600
     21 CAU         -5.7440    -0.1220    -4.3500 cd         1 G9L      -0.154400
     22 CAV         -8.1600     1.2900    -4.6070 c          1 G9L       0.611100
     23 CAW         -6.3270     0.0470    -5.6900 ca         1 G9L      -0.006800
     24 CAX         -7.5390     0.7550    -5.8240 ca         1 G9L      -0.140600
     25 HN13        -7.9870     1.4580    -2.6020 hn         1 G9L       0.172500
     26 HAD         -5.7940    -0.7120    -8.9310 ha         1 G9L       0.118000
     27 HAE         -4.7740    -1.0270    -6.7300 ha         1 G9L       0.122000
     28 HAF         -8.9450     1.6030    -7.2140 ha         1 G9L       0.142000
     29 HAG          1.7730     1.2210     3.2000 hc         1 G9L       0.013200
     30 HAGA         1.8300     2.1310     1.6800 hc         1 G9L       0.013200
     31 HAH          3.0630     0.0180     1.4410 hc         1 G9L       0.018450
     32 HAHA         1.6280    -0.8900     1.9500 hc         1 G9L       0.018450
     33 HAI         -0.4610     0.3700     2.6260 hc         1 G9L       0.018450
     34 HAIA        -0.4570     2.1420     2.5800 hc         1 G9L       0.018450
     35 HAJ         -2.5190     0.4510    -0.8170 hc         1 G9L       0.038700
     36 HAJA        -2.2320    -1.2940    -0.7490 hc         1 G9L       0.038700
     37 HAK         -5.3240     1.2140    -1.6210 hc         1 G9L       0.030200
     38 HAKA        -6.6450     0.1160    -1.2010 hc         1 G9L       0.030200
     39 HAL          1.8280    -0.8860    -0.5090 h1         1 G9L       0.009200
     40 HALA         1.8280     0.8860    -0.5090 h1         1 G9L       0.009200
     41 HAM         -0.1600     2.0840     0.1340 h1         1 G9L       0.009200
     42 HAMA        -1.6140     1.1880     0.6070 h1         1 G9L       0.009200
     43 HAN         -0.3290     0.7670    -1.9230 h1         1 G9L       0.025200
     44 HANA        -0.0420    -0.9770    -1.8540 h1         1 G9L       0.025200
     45 HAO         -4.2880    -0.7910    -0.8370 h1         1 G9L       0.033200
     46 HAOA        -5.3570    -1.8090    -1.8260 h1         1 G9L       0.033200
     47 HAP         -3.7470    -0.5050    -4.9730 h1         1 G9L       0.042200
     48 HAPA        -4.6440    -1.9400    -4.4500 h1         1 G9L       0.042200
     49 OAB         -9.2090     1.9050    -4.6670 o          1 G9L      -0.676500
     50 FAC         -8.0170     0.5570    -9.4150 f          1 G9L      -0.124900
@<TRIPOS>BOND
     1     1    13 1   
     2     1    14 1   
     3     1    15 1   
     4     2    16 1   
     5     2    17 1   
     6     2    18 1   
     7     3    20 1   
     8     3    22 1   
     9     3    25 1   
    10     4    18 2   
    11     5     6 ar  
    12     5    19 ar  
    13     5    26 1   
    14     6    23 ar  
    15     6    27 1   
    16     7    19 ar  
    17     7    24 ar  
    18     7    28 1   
    19     8     9 1   
    20     8    10 1   
    21     8    29 1   
    22     8    30 1   
    23     9    13 1   
    24     9    31 1   
    25     9    32 1   
    26    10    14 1   
    27    10    33 1   
    28    10    34 1   
    29    11    15 1   
    30    11    18 1   
    31    11    35 1   
    32    11    36 1   
    33    12    16 1   
    34    12    20 1   
    35    12    37 1   
    36    12    38 1   
    37    13    39 1   
    38    13    40 1   
    39    14    41 1   
    40    14    42 1   
    41    15    43 1   
    42    15    44 1   
    43    16    45 1   
    44    16    46 1   
    45    17    21 1   
    46    17    47 1   
    47    17    48 1   
    48    19    50 1   
    49    20    21 2   
    50    21    23 1   
    51    22    24 1   
    52    22    49 2   
    53    23    24 ar  
@<TRIPOS>SUBSTRUCTURE
     1 G9L         1 TEMP              0 ****  ****    0 ROOT
