@<TRIPOS>MOLECULE
molecule
   50    53     1     0     0
SMALL
bcc


@<TRIPOS>ATOM
      1 N11          0.0000     0.0000     0.0000 n3         1 G9L      -0.737600
      2 N12         -3.8900    -0.7530    -2.9020 n          1 G9L      -0.497800
      3 N13         -7.5540     1.0900    -3.4260 ns         1 G9L      -0.440100
      4 OAA         -1.8270    -0.4440    -3.6570 o          1 G9L      -0.605100
      5 CAD         -6.2780    -0.3030    -8.0520 ca         1 G9L      -0.133000
      6 CAE         -5.7050    -0.4810    -6.8240 ca         1 G9L      -0.115000
      7 CAF         -8.1080     0.9270    -7.0850 ca         1 G9L      -0.098000
      8 CAG          1.4500     1.2410     2.1660 c3         1 G9L      -0.081400
      9 CAH          1.9800     0.0000     1.4420 c3         1 G9L      -0.078900
     10 CAI         -0.0800     1.2420     2.1090 c3         1 G9L      -0.078900
     11 CAJ         -2.0350    -0.3860    -1.3060 c3         1 G9L      -0.157400
     12 CAK         -5.8230     0.2890    -1.8850 c3         1 G9L      -0.067200
     13 CAL          1.4690     0.0000     0.0000 c3         1 G9L       0.164300
     14 CAM         -0.5320     1.2050     0.6480 c3         1 G9L       0.164300
     15 CAN         -0.5260    -0.1400    -1.3650 c3         1 G9L       0.176800
     16 CAO         -4.8290    -0.8640    -1.7730 c3         1 G9L       0.106000
     17 CAP         -4.4530    -0.8920    -4.2490 c3         1 G9L       0.169200
     18 CAR         -2.5750    -0.5300    -2.7060 c          1 G9L       0.667100
     19 CAS         -7.4730     0.3960    -8.1900 ca         1 G9L       0.113900
     20 CAT         -6.3660     0.4050    -3.2890 cc         1 G9L       0.053400
     21 CAU         -5.7440    -0.1220    -4.3500 cd         1 G9L      -0.163400
     22 CAV         -8.1600     1.2900    -4.6070 c          1 G9L       0.710100
     23 CAW         -6.3270     0.0470    -5.6900 ca         1 G9L      -0.010800
     24 CAX         -7.5390     0.7550    -5.8240 ca         1 G9L      -0.132600
     25 HN13        -7.9870     1.4580    -2.6020 hn         1 G9L       0.334500
     26 HAD         -5.7940    -0.7120    -8.9310 ha         1 G9L       0.148000
     27 HAE         -4.7740    -1.0270    -6.7300 ha         1 G9L       0.147000
     28 HAF         -8.9450     1.6030    -7.2140 ha         1 G9L       0.171000
     29 HAG          1.7730     1.2210     3.2000 hc         1 G9L       0.041200
     30 HAGA         1.8300     2.1310     1.6800 hc         1 G9L       0.041200
     31 HAH          3.0630     0.0180     1.4410 hc         1 G9L       0.047950
     32 HAHA         1.6280    -0.8900     1.9500 hc         1 G9L       0.047950
     33 HAI         -0.4610     0.3700     2.6260 hc         1 G9L       0.047950
     34 HAIA        -0.4570     2.1420     2.5800 hc         1 G9L       0.047950
     35 HAJ         -2.5190     0.4510    -0.8170 hc         1 G9L       0.067700
     36 HAJA        -2.2320    -1.2940    -0.7490 hc         1 G9L       0.067700
     37 HAK         -5.3240     1.2140    -1.6210 hc         1 G9L       0.064700
     38 HAKA        -6.6450     0.1160    -1.2010 hc         1 G9L       0.064700
     39 HAL          1.8280    -0.8860    -0.5090 h1         1 G9L       0.033450
     40 HALA         1.8280     0.8860    -0.5090 h1         1 G9L       0.033450
     41 HAM         -0.1600     2.0840     0.1340 h1         1 G9L       0.033450
     42 HAMA        -1.6140     1.1880     0.6070 h1         1 G9L       0.033450
     43 HAN         -0.3290     0.7670    -1.9230 h1         1 G9L       0.051700
     44 HANA        -0.0420    -0.9770    -1.8540 h1         1 G9L       0.051700
     45 HAO         -4.2880    -0.7910    -0.8370 h1         1 G9L       0.061700
     46 HAOA        -5.3570    -1.8090    -1.8260 h1         1 G9L       0.061700
     47 HAP         -3.7470    -0.5050    -4.9730 h1         1 G9L       0.071700
     48 HAPA        -4.6440    -1.9400    -4.4500 h1         1 G9L       0.071700
     49 OAB         -9.2090     1.9050    -4.6670 o          1 G9L      -0.632500
     50 FAC         -8.0170     0.5570    -9.4150 f          1 G9L      -0.135900
@<TRIPOS>BOND
     1    14     1 1
     2     1    13 1
     3     1    15 1
     4    18     2 1
     5     2    16 1
     6     2    17 1
     7    20     3 1
     8     3    22 1
     9     3    25 1
    10     4    18 2
    11    22    49 2
    12    19    50 1
    13     6     5 ar
    14     5    19 ar
    15     5    26 1
    16     6    23 ar
    17     6    27 1
    18    24     7 ar
    19    19     7 ar
    20     7    28 1
    21    10     8 1
    22     8     9 1
    23     8    29 1
    24     8    30 1
    25     9    13 1
    26     9    31 1
    27     9    32 1
    28    10    14 1
    29    10    33 1
    30    10    34 1
    31    15    11 1
    32    11    18 1
    33    11    35 1
    34    11    36 1
    35    16    12 1
    36    12    20 1
    37    12    37 1
    38    12    38 1
    39    13    39 1
    40    13    40 1
    41    14    41 1
    42    14    42 1
    43    15    43 1
    44    15    44 1
    45    16    45 1
    46    16    46 1
    47    17    21 1
    48    17    47 1
    49    17    48 1
    50    21    20 2
    51    21    23 1
    52    24    22 1
    53    23    24 ar
@<TRIPOS>SUBSTRUCTURE
     1 G9L         1 TEMP              0 ****  ****    0 ROOT
