@<TRIPOS>MOLECULE
G9M
   57    61     1     0     0
SMALL
bcc


@<TRIPOS>ATOM
      1 C            0.0000     0.0000     0.0000 c          1 G9M       0.541100
      2 O            1.2130     0.0000     0.0000 o          1 G9M      -0.559100
      3 CA          -0.7530     0.0000     1.3060 c3         1 G9M       0.082800
      4 N11          2.4260     0.7340     5.9260 n3         1 G9M      -0.534600
      5 N12          0.2020    -0.0050     2.4220 n3         1 G9M      -0.503600
      6 N13         -0.6750     0.0050    -1.1670 ns         1 G9M      -0.121400
      7 N14          2.1080     0.4650    -5.9040 ns         1 G9M       0.026900
      8 N15          1.3380     0.1210    -2.3670 nb         1 G9M      -0.512000
      9 OAB          4.0410     0.5750    -6.9860 o          1 G9M      -0.678500
     10 CAC          6.2880     0.2170    -3.4770 ca         1 G9M      -0.112000
     11 CAD          5.5970     0.0970    -2.2810 ca         1 G9M      -0.081000
     12 CAE         -0.6930     0.2400    -3.5650 ca         1 G9M      -0.228300
     13 CAF          5.6100     0.3380    -4.6720 ca         1 G9M      -0.038000
     14 CAG          4.2170     0.0950    -2.2640 ca         1 G9M      -0.075000
     15 CAH         -0.0070     0.3550    -4.7570 ca         1 G9M      -0.092000
     16 CAI          2.6880     1.0540     8.3190 c3         1 G9M      -0.029400
     17 CAJ          3.7860     1.8220     7.5480 c3         1 G9M      -0.029400
     18 CAK          0.5530    -0.3890     4.8150 c3         1 G9M      -0.028400
     19 CAL          2.0560     1.1400     3.5380 c3         1 G9M      -0.028400
     20 CAM          1.8250     0.3850     7.2320 c3         1 G9M       0.146300
     21 CAN          3.1570     2.0080     6.1450 c3         1 G9M       0.146300
     22 CAO         -0.4830    -0.2440     3.6990 c3         1 G9M       0.142800
     23 CAP          0.9760     1.2410     2.4590 c3         1 G9M       0.142800
     24 CAV          0.0180     0.1230    -2.3720 ca         1 G9M       0.335200
     25 CAW          3.4530     0.4680    -5.9270 c          1 G9M       0.617100
     26 CAX          1.3900     0.3520    -4.7260 ca         1 G9M      -0.214700
     27 CAY          4.2160     0.3410    -4.6750 ca         1 G9M      -0.151600
     28 CAZ          3.5150     0.2160    -3.4580 ca         1 G9M      -0.116500
     29 CBA          2.0390     0.2310    -3.4910 ca         1 G9M       0.421800
     30 CBB          1.3920     0.8890     4.8960 c3         1 G9M       0.127500
     31 HA          -1.3730     0.8860     1.3650 h1         1 G9M       0.019200
     32 HAA         -1.3790    -0.8830     1.3610 h1         1 G9M       0.019200
     33 HN13        -1.6740    -0.0500    -1.1670 hn         1 G9M       0.168500
     34 HN14         1.6100     0.5490    -6.7680 hn         1 G9M       0.173500
     35 HAC          7.3710     0.2170    -3.4720 ha         1 G9M       0.105000
     36 HAD          6.1460     0.0020    -1.3520 ha         1 G9M       0.105000
     37 HAE         -1.7690     0.1140    -3.5690 ha         1 G9M       0.114000
     38 HAF          6.1570     0.4320    -5.6020 ha         1 G9M       0.126000
     39 HAG          3.6840     0.0000    -1.3260 ha         1 G9M       0.146000
     40 HAH         -0.5400     0.4470    -5.6960 ha         1 G9M       0.116000
     41 HAI          2.0880     1.7430     8.9020 hc         1 G9M       0.017950
     42 HAIA         3.1350     0.3020     8.9580 hc         1 G9M       0.017950
     43 HAJ          4.6920     1.2310     7.4850 hc         1 G9M       0.017950
     44 HAJA         3.9770     2.7820     8.0120 hc         1 G9M       0.017950
     45 HAK          1.2000    -1.2320     4.6000 hc         1 G9M       0.030700
     46 HAKA         0.0460    -0.5480     5.7590 hc         1 G9M       0.030700
     47 HAL          2.7230     0.3190     3.3050 hc         1 G9M       0.030700
     48 HALA         2.6150     2.0680     3.5770 hc         1 G9M       0.030700
     49 HAM          1.8340    -0.6900     7.3660 h1         1 G9M       0.013950
     50 HAMA         0.8110     0.7620     7.2840 h1         1 G9M       0.013950
     51 HAN          3.9300     2.1370     5.3960 h1         1 G9M       0.013950
     52 HANA         2.4700     2.8460     6.1440 h1         1 G9M       0.013950
     53 HAO         -1.1350     0.5920     3.9190 h1         1 G9M       0.013450
     54 HAOA        -1.0660    -1.1540     3.6290 h1         1 G9M       0.013450
     55 HAP          0.3150     2.0680     2.6880 h1         1 G9M       0.013450
     56 HAPA         1.4450     1.4030     1.4960 h1         1 G9M       0.013450
     57 HBB          0.7500     1.7260     5.1430 h1         1 G9M       0.006700
@<TRIPOS>BOND
     1     1     2 2   
     2     1     3 1   
     3     1     6 1   
     4     3     5 1   
     5     3    31 1   
     6     3    32 1   
     7     4    20 1   
     8     4    21 1   
     9     4    30 1   
    10     5    22 1   
    11     5    23 1   
    12     6    24 1   
    13     6    33 1   
    14     7    25 1   
    15     7    26 1   
    16     7    34 1   
    17     8    24 ar  
    18     8    29 ar  
    19     9    25 2   
    20    10    11 ar  
    21    10    13 ar  
    22    10    35 1   
    23    11    14 ar  
    24    11    36 1   
    25    12    15 ar  
    26    12    24 ar  
    27    12    37 1   
    28    13    27 ar  
    29    13    38 1   
    30    14    28 ar  
    31    14    39 1   
    32    15    26 ar  
    33    15    40 1   
    34    16    17 1   
    35    16    20 1   
    36    16    41 1   
    37    16    42 1   
    38    17    21 1   
    39    17    43 1   
    40    17    44 1   
    41    18    22 1   
    42    18    30 1   
    43    18    45 1   
    44    18    46 1   
    45    19    23 1   
    46    19    30 1   
    47    19    47 1   
    48    19    48 1   
    49    20    49 1   
    50    20    50 1   
    51    21    51 1   
    52    21    52 1   
    53    22    53 1   
    54    22    54 1   
    55    23    55 1   
    56    23    56 1   
    57    25    27 1   
    58    26    29 ar  
    59    27    28 ar  
    60    28    29 1   
    61    30    57 1   
@<TRIPOS>SUBSTRUCTURE
     1 G9M         1 TEMP              0 ****  ****    0 ROOT
