@<TRIPOS>MOLECULE
G9P
   32    35     1     0     0
SMALL
bcc


@<TRIPOS>ATOM
      1 N11          0.0000     0.0000     0.0000 ns         1 G9P      -0.186900
      2 OAA         -1.9130    -0.7020     0.9040 o          1 G9P      -0.704500
      3 OAB          7.0170     2.1590    -0.5620 o          1 G9P      -0.654867
      4 OAC          5.6870     0.9390    -2.0790 o          1 G9P      -0.654867
      5 OAD          7.7570    -0.0240    -1.0600 o          1 G9P      -0.654867
      6 CAE          0.1850    -3.2220     3.5730 ca         1 G9P      -0.100000
      7 CAF          1.4930    -2.8650     3.8450 ca         1 G9P      -0.114000
      8 CAG         -0.5450    -2.5340     2.6220 ca         1 G9P      -0.072000
      9 CAH          6.2330    -0.6240     1.3410 ca         1 G9P       0.023000
     10 CAI          5.4830    -1.1510     2.3790 ca         1 G9P      -0.171000
     11 CAJ          4.2490     0.2990     0.3630 ca         1 G9P       0.018000
     12 CAK          1.4610     0.0000     0.0000 c3         1 G9P       0.036000
     13 OAM          3.3710    -1.4510     3.4310 os         1 G9P      -0.211200
     14 CAN         -0.6980    -0.7030     0.9160 c          1 G9P       0.642100
     15 CAO          5.6170     0.0980     0.3350 ca         1 G9P      -0.111500
     16 CAP          4.1110    -0.9500     2.4060 ca         1 G9P       0.130100
     17 CAQ          2.0880    -1.8120     3.1630 ca         1 G9P       0.141100
     18 CAR          0.0470    -1.4770     1.9350 ca         1 G9P      -0.120600
     19 CAS          3.4960    -0.2220     1.3970 ca         1 G9P      -0.209300
     20 CAT          1.3690    -1.1230     2.2040 ca         1 G9P      -0.122300
     21 CAU          2.0030     0.0000     1.4320 c3         1 G9P       0.083900
     22 SAV          6.5770     0.7640    -0.9840 s6         1 G9P       1.027100
     23 HN11        -0.4920     0.5310    -0.6910 hn         1 G9P       0.180500
     24 HAE         -0.2700    -4.0460     4.1090 ha         1 G9P       0.099000
     25 HAF          2.0570    -3.4100     4.5920 ha         1 G9P       0.110000
     26 HAG         -1.5690    -2.8160     2.4110 ha         1 G9P       0.119000
     27 HAH          7.3040    -0.7800     1.3160 ha         1 G9P       0.126000
     28 HAI          5.9660    -1.7160     3.1670 ha         1 G9P       0.104000
     29 HAJ          3.7680     0.8650    -0.4260 ha         1 G9P       0.128000
     30 HAK          1.8060    -0.8980    -0.4990 h1         1 G9P       0.037200
     31 HAKA         1.8060     0.8980    -0.4990 h1         1 G9P       0.037200
     32 HAU          1.7820     0.9470     1.9100 hc         1 G9P       0.043700
@<TRIPOS>BOND
     1     1    12 1   
     2     1    14 1   
     3     1    23 1   
     4     2    14 2   
     5     3    22 1   
     6     4    22 1   
     7     5    22 1   
     8     6     7 ar  
     9     6     8 ar  
    10     6    24 1   
    11     7    17 ar  
    12     7    25 1   
    13     8    18 ar  
    14     8    26 1   
    15     9    10 ar  
    16     9    15 ar  
    17     9    27 1   
    18    10    16 ar  
    19    10    28 1   
    20    11    15 ar  
    21    11    19 ar  
    22    11    29 1   
    23    12    21 1   
    24    12    30 1   
    25    12    31 1   
    26    13    16 1   
    27    13    17 1   
    28    14    18 1   
    29    15    22 1   
    30    16    19 ar  
    31    17    20 ar  
    32    18    20 ar  
    33    19    21 1   
    34    20    21 1   
    35    21    32 1   
@<TRIPOS>SUBSTRUCTURE
     1 G9P         1 TEMP              0 ****  ****    0 ROOT
