@<TRIPOS>MOLECULE
molecule
   50    52     1     0     0
SMALL
bcc


@<TRIPOS>ATOM
      1 C4           0.0000     0.0000     0.0000 ca         1 G9Q       0.135600
      2 C14          4.7880    -0.0340     7.7880 ca         1 G9Q      -0.064500
      3 C5           1.3870     0.0000     0.0000 ca         1 G9Q      -0.128300
      4 C6          -0.6910    -0.0010     1.2160 ca         1 G9Q      -0.174000
      5 C11          2.7030    -0.0200     4.6610 cg         1 G9Q      -0.097000
      6 C7          -0.0110    -0.0030     2.4090 ca         1 G9Q      -0.112000
      7 C8           1.3880    -0.0030     2.4120 ca         1 G9Q      -0.005000
      8 C9           2.0780     0.0000     1.1980 ca         1 G9Q      -0.088000
      9 C10          2.1070    -0.0020     3.6490 ch         1 G9Q      -0.199000
     10 C12          3.6060     0.3980     5.9430 ca         1 G9Q       0.091000
     11 C13          4.0310    -0.5100     6.5640 ca         1 G9Q      -0.220500
     12 N1          -0.7560     0.0080    -1.1680 nh         1 G9Q      -0.634000
     13 C3          -0.0070    -0.4490    -2.3410 c3         1 G9Q       0.137800
     14 C1           2.1850    -0.0040    -1.2790 c3         1 G9Q       0.006300
     15 C2           1.2810     0.3770    -2.4530 c3         1 G9Q      -0.069400
     16 C15          4.9310     1.2650     8.0880 ca         1 G9Q      -0.044600
     17 C16          3.3350     1.6240     8.2010 ca         1 G9Q      -0.064500
     18 C17          3.1090     1.7920     6.5770 ca         1 G9Q      -0.220500
     19 C18          5.7490     1.0240     9.2450 c          1 G9Q       0.851200
     20 O1           6.9130     0.6680     9.4340 o          1 G9Q      -0.830300
     21 O2           5.0910     0.7580    10.3100 o          1 G9Q      -0.830300
     22 C19         -1.9930    -0.7660    -1.0000 c3         1 G9Q       0.201500
     23 C20         -2.8310    -0.6720    -2.2770 c3         1 G9Q      -0.125100
     24 C21         -1.6460    -2.2310    -0.7250 c3         1 G9Q      -0.125100
     25 C22          2.7630    -1.4010    -1.5140 c3         1 G9Q      -0.104600
     26 C23          3.3290     1.0070    -1.1680 c3         1 G9Q      -0.104600
     27 H2          -1.7030     0.3730     1.3150 ha         1 G9Q       0.135000
     28 H3          -0.2010    -0.1660     3.4630 ha         1 G9Q       0.158000
     29 H4           3.1460    -0.1810     1.2200 ha         1 G9Q       0.138000
     30 H5           4.4180    -1.4600     6.2150 ha         1 G9Q       0.132000
     31 H6          -0.7710    -0.3740    -3.1060 h1         1 G9Q       0.051700
     32 H7          -0.0180    -1.4600    -1.9540 h1         1 G9Q       0.051700
     33 H8           1.8030    -0.3450    -3.0700 hc         1 G9Q       0.070200
     34 H9           1.0570     1.3920    -2.7560 hc         1 G9Q       0.070200
     35 H10          2.6580     2.0020     8.9570 ha         1 G9Q       0.149500
     36 H11          2.3630     2.4540     6.1540 ha         1 G9Q       0.132000
     37 H13         -2.2610    -0.5290     0.0230 h1         1 G9Q       0.100700
     38 H14         -3.1770     0.2820    -2.6570 hc         1 G9Q       0.036700
     39 H15         -3.7170    -0.9220    -1.7070 hc         1 G9Q       0.036700
     40 H16         -2.7520    -1.6030    -2.8260 hc         1 G9Q       0.036700
     41 H17         -0.8340    -2.8070    -0.2970 hc         1 G9Q       0.036700
     42 H18         -1.6730    -2.8870    -1.5860 hc         1 G9Q       0.036700
     43 H19         -2.5070    -2.7680    -0.3470 hc         1 G9Q       0.036700
     44 H20          2.6920    -2.3350    -0.9700 hc         1 G9Q       0.043367
     45 H21          2.6940    -1.4510    -2.5940 hc         1 G9Q       0.043367
     46 H22          3.8070    -1.1120    -1.5380 hc         1 G9Q       0.043367
     47 H23          3.8380     1.2020    -2.1040 hc         1 G9Q       0.043367
     48 H24          2.9610     1.8770    -0.6370 hc         1 G9Q       0.043367
     49 H25          3.8850     0.6990    -0.2910 hc         1 G9Q       0.043367
     50 H1           5.2970    -0.9690     7.9840 ha         1 G9Q       0.149500
@<TRIPOS>BOND
     1    20    19 1
     2    21    19 1
     3    19    16 1
     4    16     2 ar
     5    16    17 ar
     6     2    11 ar
     7    17    18 ar
     8    11    10 ar
     9    18    10 ar
    10    10     5 1
    11     5     9 3
    12     9     7 1
    13     7     6 ar
    14     7     8 ar
    15     6     4 ar
    16     8     3 ar
    17     4     1 ar
    18    25    14 1
    19     3     1 ar
    20     3    14 1
    21     1    12 1
    22    14    26 1
    23    14    15 1
    24    24    22 1
    25    12    22 1
    26    12    13 1
    27    22    23 1
    28    13    15 1
    29     2    50 1
    30     4    27 1
    31     6    28 1
    32     8    29 1
    33    11    30 1
    34    13    31 1
    35    13    32 1
    36    15    33 1
    37    15    34 1
    38    17    35 1
    39    18    36 1
    40    22    37 1
    41    23    38 1
    42    23    39 1
    43    23    40 1
    44    24    41 1
    45    24    42 1
    46    24    43 1
    47    25    44 1
    48    25    45 1
    49    25    46 1
    50    26    47 1
    51    26    48 1
    52    26    49 1
@<TRIPOS>SUBSTRUCTURE
     1 G9Q         1 TEMP              0 ****  ****    0 ROOT
