@<TRIPOS>MOLECULE
G9V
   57    61     1     0     0
SMALL
bcc


@<TRIPOS>ATOM
      1 C7           0.0000     0.0000     0.0000 ca         1 G9V      -0.065000
      2 C9          -0.0020    -0.0060     2.4220 ca         1 G9V      -0.099000
      3 N2           2.3430     0.0020    -0.9970 na         1 G9V       0.294700
      4 C10          1.3830    -0.0010     2.4340 ca         1 G9V       0.042200
      5 C6           1.3860     0.0000     0.0000 ca         1 G9V      -0.268200
      6 C29         -3.7830    -2.4680     0.6920 c3         1 G9V      -0.004500
      7 N20          2.8320     2.4050     6.3150 na         1 G9V       0.474900
      8 C18          1.7070     2.5200     4.4140 cc         1 G9V      -0.161000
      9 C11          2.1160    -0.0070     3.7210 cc         1 G9V      -0.034400
     10 C1           2.0970     0.0030    -2.4410 c3         1 G9V       0.003600
     11 C8          -0.6960    -0.0010     1.2080 ca         1 G9V      -0.150600
     12 C16          2.9040     1.1530     5.7480 cd         1 G9V      -0.412900
     13 C5           2.0920     0.0000     1.2140 ca         1 G9V       0.088400
     14 N13          3.4060    -1.1510     5.3470 n          1 G9V       0.076000
     15 C24          3.3950    -4.5960     6.8470 c2         1 G9V      -0.163200
     16 C25          2.7790    -5.3700     7.7310 c2         1 G9V      -0.147000
     17 C32         -3.1430    -1.6060    -1.8920 c3         1 G9V       0.197400
     18 C17          2.1960     1.2070     4.5430 cc         1 G9V      -0.046800
     19 C22          4.0220    -2.4090     5.7740 c3         1 G9V       0.022000
     20 O31         -4.3060    -2.3680    -1.6840 os         1 G9V      -0.391600
     21 C12          2.7270    -1.1380     4.1650 cd         1 G9V      -0.155400
     22 C19          2.1020     3.2160     5.5000 cd         1 G9V      -0.317300
     23 C14          3.5080    -0.0620     6.1290 c          1 G9V       0.674100
     24 N28         -2.5920    -1.6770     0.5060 n          1 G9V      -0.235800
     25 C33         -2.0820    -1.8630    -0.8220 c3         1 G9V      -0.004500
     26 C3           3.5570     0.0020    -0.3850 cc         1 G9V       0.266700
     27 C23          3.1380    -3.0780     6.8440 c3         1 G9V      -0.019200
     28 C26         -1.9840    -0.8020     1.5360 c          1 G9V       0.679700
     29 C30         -4.8270    -2.2050    -0.3910 c3         1 G9V       0.197400
     30 O27         -2.4790    -0.7110     2.6090 o          1 G9V      -0.577100
     31 N4           3.4050     0.0010     0.9080 nd         1 G9V      -0.516100
     32 H1          -0.5420     0.0810    -0.9350 ha         1 G9V       0.118000
     33 H2          -0.5480    -0.4950     3.2200 ha         1 G9V       0.148000
     34 H4          -4.2130    -2.2300     1.6570 h1         1 G9V       0.031950
     35 H5           3.2430     2.6810     7.1850 hn         1 G9V       0.114700
     36 H6           1.0910     2.8940     3.6050 ha         1 G9V       0.132000
     37 H7           1.0570    -0.2360    -2.6300 h1         1 G9V       0.021367
     38 H8           2.3210     0.9820    -2.8450 h1         1 G9V       0.021367
     39 H9           2.7300    -0.7370    -2.9150 h1         1 G9V       0.021367
     40 H10          4.4160    -4.8100     6.5580 ha         1 G9V       0.107000
     41 H11          2.0960    -4.9350     8.4510 ha         1 G9V       0.085000
     42 H12          2.9600    -6.4390     7.7340 ha         1 G9V       0.085000
     43 H13         -3.4060    -0.5550    -1.8780 h1         1 G9V       0.008450
     44 H14         -2.7290    -1.8560    -2.8620 h1         1 G9V       0.008450
     45 H15          5.0020    -2.2080     6.1890 h1         1 G9V       0.037200
     46 H16          4.1200    -3.0710     4.9220 h1         1 G9V       0.037200
     47 H17          2.9330    -1.9480     3.4770 h4         1 G9V       0.134000
     48 H18          1.8720     4.2590     5.6810 h4         1 G9V       0.144000
     49 H19         -1.2550    -1.1800    -0.9780 h1         1 G9V       0.031950
     50 H20         -1.7260    -2.8810    -0.9210 h1         1 G9V       0.031950
     51 H21          4.5200    -0.0010    -0.8820 h5         1 G9V       0.029800
     52 H22          3.3790    -2.6690     7.8180 hc         1 G9V       0.033200
     53 H23          2.0950    -2.8880     6.6210 hc         1 G9V       0.033200
     54 H24         -5.6510    -2.8940    -0.2570 h1         1 G9V       0.008450
     55 H25         -5.1910    -1.1900    -0.2870 h1         1 G9V       0.008450
     56 O15          4.1510    -0.1170     7.1230 o          1 G9V      -0.716500
     57 H3          -3.5130    -3.5170     0.6700 h1         1 G9V       0.031950
@<TRIPOS>BOND
     1     1     5 ar  
     2     1    11 ar  
     3     1    32 1   
     4     2     4 ar  
     5     2    11 ar  
     6     2    33 1   
     7     3     5 1   
     8     3    10 1   
     9     3    26 1   
    10     4     9 1   
    11     4    13 ar  
    12     5    13 ar  
    13     6    24 1   
    14     6    29 1   
    15     6    34 1   
    16     6    57 1   
    17     7    12 1   
    18     7    22 1   
    19     7    35 1   
    20     8    18 1   
    21     8    22 2   
    22     8    36 1   
    23     9    18 1   
    24     9    21 2   
    25    10    37 1   
    26    10    38 1   
    27    10    39 1   
    28    11    28 1   
    29    12    18 2   
    30    12    23 1   
    31    13    31 1   
    32    14    19 1   
    33    14    21 1   
    34    14    23 1   
    35    15    16 2   
    36    15    27 1   
    37    15    40 1   
    38    16    41 1   
    39    16    42 1   
    40    17    20 1   
    41    17    25 1   
    42    17    43 1   
    43    17    44 1   
    44    19    27 1   
    45    19    45 1   
    46    19    46 1   
    47    20    29 1   
    48    21    47 1   
    49    22    48 1   
    50    23    56 2   
    51    24    25 1   
    52    24    28 1   
    53    25    49 1   
    54    25    50 1   
    55    26    31 2   
    56    26    51 1   
    57    27    52 1   
    58    27    53 1   
    59    28    30 2   
    60    29    54 1   
    61    29    55 1   
@<TRIPOS>SUBSTRUCTURE
     1 G9V         1 TEMP              0 ****  ****    0 ROOT
