@<TRIPOS>MOLECULE
molecule
   57    61     1     0     0
SMALL
bcc


@<TRIPOS>ATOM
      1 C7           0.0000     0.0000     0.0000 ca         1 G9V      -0.059000
      2 C9          -0.0020    -0.0060     2.4220 ca         1 G9V      -0.321000
      3 N2           2.3430     0.0020    -0.9970 na         1 G9V      -0.159300
      4 C10          1.3830    -0.0010     2.4340 ca         1 G9V       0.071200
      5 C6           1.3860     0.0000     0.0000 ca         1 G9V      -0.076200
      6 C29         -2.5750     1.3790     4.3970 c3         1 G9V       0.064500
      7 N20          2.8320     2.4050     6.3150 na         1 G9V      -0.124100
      8 C18          1.7070     2.5200     4.4140 cc         1 G9V      -0.203000
      9 C11          2.1160    -0.0070     3.7210 cc         1 G9V      -0.081400
     10 C1           2.0970     0.0030    -2.4410 c3         1 G9V       0.038600
     11 C8          -0.6960    -0.0010     1.2080 ca         1 G9V      -0.166600
     12 C16          2.9040     1.1530     5.7480 cd         1 G9V      -0.204900
     13 C5           2.0920     0.0000     1.2140 ca         1 G9V       0.104400
     14 N13          3.4060    -1.1510     5.3470 n          1 G9V      -0.344000
     15 C24          6.2190    -3.3000     6.6170 c2         1 G9V      -0.170200
     16 C25          7.3780    -3.8120     6.2550 c2         1 G9V      -0.225000
     17 C32         -1.6410    -1.1490     5.1680 c3         1 G9V       0.112900
     18 C17          2.1960     1.2070     4.5430 cc         1 G9V      -0.047800
     19 C22          4.0480    -2.3880     5.7960 c3         1 G9V       0.108000
     20 O31         -2.2210    -0.3000     6.1300 os         1 G9V      -0.403600
     21 C12          2.7270    -1.1380     4.1650 cd         1 G9V       0.000600
     22 C19          2.1020     3.2160     5.5000 cd         1 G9V      -0.122300
     23 C14          3.5080    -0.0620     6.1290 c          1 G9V       0.744100
     24 N28         -1.9740     0.5330     3.3970 n          1 G9V      -0.572800
     25 C33         -2.1420    -0.8530     3.7560 c3         1 G9V       0.064500
     26 C3           3.5570     0.0020    -0.3850 cc         1 G9V       0.439700
     27 C23          5.5650    -2.2140     5.7660 c3         1 G9V      -0.071200
     28 C26         -1.2950     1.0110     2.1950 c          1 G9V       0.807700
     29 C30         -2.0700     1.0610     5.8030 c3         1 G9V       0.112900
     30 O27         -1.2010     2.1710     1.9770 o          1 G9V      -0.570100
     31 N4           3.4050     0.0010     0.9080 nd         1 G9V      -0.594100
     32 H1          -0.5420     0.0170    -0.9380 ha         1 G9V       0.139000
     33 H2          -0.5510    -0.0110     3.3560 ha         1 G9V       0.263000
     34 H4          -2.3430     2.4110     4.1670 h1         1 G9V       0.056950
     35 H5           3.2430     2.6810     7.1850 hn         1 G9V       0.309700
     36 H6           1.1420     2.9110     3.5760 ha         1 G9V       0.167000
     37 H7           2.8980     0.5300    -2.9440 h1         1 G9V       0.055367
     38 H8           2.0550    -1.0180    -2.8000 h1         1 G9V       0.055367
     39 H9           1.1550     0.4970    -2.6460 h1         1 G9V       0.055367
     40 H10          5.7920    -3.5540     7.5800 ha         1 G9V       0.128000
     41 H11          7.8420    -4.5830     6.8590 ha         1 G9V       0.113000
     42 H12          7.8670    -3.4630     5.3540 ha         1 G9V       0.113000
     43 H13         -1.8830    -2.1760     5.4170 h1         1 G9V       0.052450
     44 H14         -0.5660    -1.0210     5.1920 h1         1 G9V       0.052450
     45 H15          3.7650    -3.2010     5.1390 h1         1 G9V       0.060200
     46 H16          3.7310    -2.6140     6.8070 h1         1 G9V       0.060200
     47 H17          2.5640    -2.0780     3.6530 h4         1 G9V       0.156000
     48 H18          1.8770     4.2600     5.6780 h4         1 G9V       0.171000
     49 H19         -3.1940    -1.1040     3.6990 h1         1 G9V       0.056950
     50 H20         -1.5910    -1.4660     3.0540 h1         1 G9V       0.056950
     51 H21          4.5200    -0.0020    -0.8820 h5         1 G9V       0.078800
     52 H22          5.9180    -2.2940     4.7450 hc         1 G9V       0.067700
     53 H23          5.8250    -1.2400     6.1620 hc         1 G9V       0.067700
     54 H24         -2.6270     1.6560     6.5170 h1         1 G9V       0.052450
     55 H25         -1.0210     1.3210     5.8650 h1         1 G9V       0.052450
     56 O15          4.1320    -0.1230     7.1340 o          1 G9V      -0.654500
     57 H3          -3.6490     1.2400     4.3710 h1         1 G9V       0.056950
@<TRIPOS>BOND
     1    22     7 1
     2    22     8 2
     3     7    12 1
     4     8    18 1
     5    12    18 2
     6    12    23 1
     7    18     9 1
     8    26    31 2
     9    26     3 1
    10    31    13 1
    11    56    23 2
    12    23    14 1
    13     3    10 1
    14     3     5 1
    15    13     5 ar
    16    13     4 ar
    17     9     4 1
    18     9    21 2
    19     5     1 ar
    20     4     2 ar
    21    14    21 1
    22    14    19 1
    23     1    11 ar
    24     2    11 ar
    25    11    28 1
    26    19    27 1
    27    27    15 1
    28    30    28 2
    29    28    24 1
    30    15    16 2
    31    24     6 1
    32    24    25 1
    33     6    29 1
    34    25    17 1
    35    29    20 1
    36    17    20 1
    37     1    32 1
    38     2    33 1
    39     6    57 1
    40     6    34 1
    41     7    35 1
    42     8    36 1
    43    10    37 1
    44    10    38 1
    45    10    39 1
    46    15    40 1
    47    16    41 1
    48    16    42 1
    49    17    43 1
    50    17    44 1
    51    19    45 1
    52    19    46 1
    53    21    47 1
    54    22    48 1
    55    25    49 1
    56    25    50 1
    57    26    51 1
    58    27    52 1
    59    27    53 1
    60    29    54 1
    61    29    55 1
@<TRIPOS>SUBSTRUCTURE
     1 G9V         1 TEMP              0 ****  ****    0 ROOT
