@<TRIPOS>MOLECULE
molecule
   38    40     1     0     0
SMALL
bcc


@<TRIPOS>ATOM
      1 C1           0.0000     0.0000     0.0000 cc         1 G9W       0.056400
      2 N2           1.3740     0.0000     0.0000 ns         1 G9W      -0.438100
      3 C3           2.0950     0.0000     1.1290 c          1 G9W       0.708100
      4 O4           3.3050     0.1320     1.0950 o          1 G9W      -0.640500
      5 C5           1.4030    -0.1780     2.4100 ca         1 G9W      -0.161600
      6 C6          -0.0120    -0.3000     2.4160 ca         1 G9W       0.023200
      7 C7          -0.7090    -0.0920     1.1400 cd         1 G9W      -0.188400
      8 C8          -2.2070     0.0760     1.1080 c3         1 G9W       0.194600
      9 O9          -2.6390     0.6410    -0.1320 os         1 G9W      -0.410600
     10 C10         -2.1540    -0.1070    -1.2550 c3         1 G9W       0.150100
     11 C11         -2.8500     0.3680    -2.5320 c3         1 G9W      -0.069700
     12 C12         -2.3270    -0.4350    -3.7260 c3         1 G9W      -0.087600
     13 C13         -4.3590     0.1590    -2.3990 c3         1 G9W      -0.087600
     14 C14         -0.6520     0.1520    -1.3540 c3         1 G9W      -0.079200
     15 C15         -0.6260    -0.6080     3.6280 ca         1 G9W      -0.096300
     16 C16         -2.0960    -0.8990     3.7820 c3         1 G9W      -0.049800
     17 C17          0.1180    -0.6440     4.7850 ca         1 G9W      -0.098000
     18 C18          1.4870    -0.4420     4.7790 ca         1 G9W      -0.148000
     19 C19          2.1340    -0.2210     3.5980 ca         1 G9W      -0.061000
     20 H2          -2.5060     0.7310     1.9180 h1         1 G9W       0.058200
     21 H3          -2.6740    -0.8930     1.2370 h1         1 G9W       0.058200
     22 H4          -2.3360    -1.1630    -1.1000 h1         1 G9W       0.047700
     23 H5          -2.6430     1.4200    -2.6860 hc         1 G9W       0.063700
     24 H6          -2.2310    -1.4770    -3.4460 hc         1 G9W       0.038367
     25 H7          -3.0220    -0.3460    -4.5530 hc         1 G9W       0.038367
     26 H8          -1.3600    -0.0500    -4.0250 hc         1 G9W       0.038367
     27 H9          -4.7530     0.8380    -1.6530 hc         1 G9W       0.038367
     28 H10         -4.5570    -0.8630    -2.0980 hc         1 G9W       0.038367
     29 H11         -4.8360     0.3540    -3.3520 hc         1 G9W       0.038367
     30 H12         -0.2130    -0.5600    -2.0430 hc         1 G9W       0.067200
     31 H13         -0.4870     1.1590    -1.7180 hc         1 G9W       0.067200
     32 H14         -2.4050    -1.6120     3.0270 hc         1 G9W       0.045033
     33 H15         -2.2810    -1.3140     4.7660 hc         1 G9W       0.045033
     34 H16         -2.6610     0.0180     3.6650 hc         1 G9W       0.045033
     35 H17         -0.3840    -0.8190     5.7290 ha         1 G9W       0.131000
     36 H18          2.0450    -0.4760     5.7060 ha         1 G9W       0.136000
     37 H19          3.2060    -0.0610     3.5850 ha         1 G9W       0.157000
     38 H20          1.8550     0.0000    -0.8780 hn         1 G9W       0.333500
@<TRIPOS>BOND
     1    18    19 ar
     2    18    17 ar
     3    19     5 ar
     4    17    15 ar
     5     4     3 2
     6     5     3 1
     7     5     6 ar
     8     3     2 1
     9    15     6 ar
    10    15    16 1
    11     6     7 1
    12     2     1 1
    13     7     1 2
    14     7     8 1
    15     1    14 1
    16     8     9 1
    17    14    10 1
    18     9    10 1
    19    10    11 1
    20    11    13 1
    21    11    12 1
    22     8    20 1
    23     8    21 1
    24    10    22 1
    25    11    23 1
    26    12    24 1
    27    12    25 1
    28    12    26 1
    29    13    27 1
    30    13    28 1
    31    13    29 1
    32    14    30 1
    33    14    31 1
    34    16    32 1
    35    16    33 1
    36    16    34 1
    37    17    35 1
    38    18    36 1
    39    19    37 1
    40     2    38 1
@<TRIPOS>SUBSTRUCTURE
     1 G9W         1 TEMP              0 ****  ****    0 ROOT
