@<TRIPOS>MOLECULE
G9W
   38    40     1     0     0
SMALL
bcc


@<TRIPOS>ATOM
      1 C1           0.0000     0.0000     0.0000 cc         1 G9W      -0.112600
      2 N2           1.3740     0.0000     0.0000 ns         1 G9W       0.031900
      3 C3           2.0950     0.0000     1.1290 c          1 G9W       0.611100
      4 O4           3.3050     0.1320     1.0950 o          1 G9W      -0.685500
      5 C5           1.4030    -0.1780     2.4100 ca         1 G9W      -0.171600
      6 C6          -0.0120    -0.3000     2.4160 ca         1 G9W       0.031200
      7 C7          -0.7090    -0.0920     1.1400 cd         1 G9W      -0.183400
      8 C8          -2.2070     0.0760     1.1080 c3         1 G9W       0.271600
      9 O9          -2.6390     0.6410    -0.1320 os         1 G9W      -0.396600
     10 C10         -2.1540    -0.1070    -1.2550 c3         1 G9W       0.183100
     11 C11         -2.8500     0.3680    -2.5320 c3         1 G9W      -0.055700
     12 C12         -2.3270    -0.4350    -3.7260 c3         1 G9W       0.005900
     13 C13         -4.3590     0.1590    -2.3990 c3         1 G9W       0.005900
     14 C14         -0.6520     0.1520    -1.3540 c3         1 G9W      -0.013200
     15 C15         -0.6260    -0.6080     3.6280 ca         1 G9W      -0.101300
     16 C16         -2.0960    -0.8990     3.7820 c3         1 G9W       0.050200
     17 C17          0.1180    -0.6440     4.7850 ca         1 G9W      -0.075000
     18 C18          1.4870    -0.4420     4.7790 ca         1 G9W      -0.123000
     19 C19          2.1340    -0.2210     3.5980 ca         1 G9W      -0.029000
     20 H2          -2.5060     0.7310     1.9180 h1         1 G9W       0.021700
     21 H3          -2.6740    -0.8930     1.2370 h1         1 G9W       0.021700
     22 H4          -2.3360    -1.1630    -1.1000 h1         1 G9W       0.019700
     23 H5          -2.6430     1.4200    -2.6860 hc         1 G9W       0.036700
     24 H6          -2.2310    -1.4770    -3.4460 hc         1 G9W       0.006200
     25 H7          -3.0220    -0.3460    -4.5530 hc         1 G9W       0.006200
     26 H8          -1.3600    -0.0500    -4.0250 hc         1 G9W       0.006200
     27 H9          -4.7530     0.8380    -1.6530 hc         1 G9W       0.006200
     28 H10         -4.5570    -0.8630    -2.0980 hc         1 G9W       0.006200
     29 H11         -4.8360     0.3540    -3.3520 hc         1 G9W       0.006200
     30 H12         -0.2130    -0.5600    -2.0430 hc         1 G9W       0.035700
     31 H13         -0.4870     1.1590    -1.7180 hc         1 G9W       0.035700
     32 H14         -2.4050    -1.6120     3.0270 hc         1 G9W       0.013367
     33 H15         -2.2810    -1.3140     4.7660 hc         1 G9W       0.013367
     34 H16         -2.6610     0.0180     3.6650 hc         1 G9W       0.013367
     35 H17         -0.3840    -0.8190     5.7290 ha         1 G9W       0.104000
     36 H18          2.0450    -0.4760     5.7060 ha         1 G9W       0.108000
     37 H19          3.2060    -0.0610     3.5850 ha         1 G9W       0.127000
     38 H20          1.8550     0.0000    -0.8780 hn         1 G9W       0.170500
@<TRIPOS>BOND
     1     1     2 1   
     2     1     7 2   
     3     1    14 1   
     4     2     3 1   
     5     2    38 1   
     6     3     4 2   
     7     3     5 1   
     8     5     6 ar  
     9     5    19 ar  
    10     6     7 1   
    11     6    15 ar  
    12     7     8 1   
    13     8     9 1   
    14     8    20 1   
    15     8    21 1   
    16     9    10 1   
    17    10    11 1   
    18    10    14 1   
    19    10    22 1   
    20    11    12 1   
    21    11    13 1   
    22    11    23 1   
    23    12    24 1   
    24    12    25 1   
    25    12    26 1   
    26    13    27 1   
    27    13    28 1   
    28    13    29 1   
    29    14    30 1   
    30    14    31 1   
    31    15    16 1   
    32    15    17 ar  
    33    16    32 1   
    34    16    33 1   
    35    16    34 1   
    36    17    18 ar  
    37    17    35 1   
    38    18    19 ar  
    39    18    36 1   
    40    19    37 1   
@<TRIPOS>SUBSTRUCTURE
     1 G9W         1 TEMP              0 ****  ****    0 ROOT
