@<TRIPOS>MOLECULE
G9Y
   51    54     1     0     0
SMALL
bcc


@<TRIPOS>ATOM
      1 C4           0.0000     0.0000     0.0000 c3         1 G9Y       0.014000
      2 C14         -0.7050     0.0000     2.3150 c          1 G9Y       0.651100
      3 C6          -0.7090    -2.0460     1.1140 cc         1 G9Y      -0.161400
      4 C7          -1.1630    -2.7410     2.1900 cd         1 G9Y      -0.046400
      5 C8          -1.4140    -2.0170     3.4430 cd         1 G9Y      -0.059800
      6 C9          -1.8710    -2.3870     4.7230 cd         1 G9Y      -0.168000
      7 C10         -1.9020    -1.2740     5.4850 cc         1 G9Y      -0.309300
      8 C13         -1.1750    -0.6390     3.4780 cc         1 G9Y      -0.399900
      9 C3           1.5300     0.0000     0.0000 c3         1 G9Y      -0.002200
     10 C29          1.8210    -6.1960     3.3340 c3         1 G9Y      -0.005500
     11 C19         -1.8670    -6.9350     1.9240 ca         1 G9Y      -0.049000
     12 C18         -2.9200    -6.0670     2.1320 ca         1 G9Y      -0.109000
     13 N5          -0.4880    -0.7020     1.1890 n          1 G9Y       0.101000
     14 C2           2.0330     0.7230    -1.2230 c2         1 G9Y      -0.160200
     15 O23          0.4890    -8.2250     0.7220 o          1 G9Y      -0.643100
     16 C16         -1.4010    -4.2010     2.1010 ca         1 G9Y      -0.029800
     17 N24          1.6730    -7.2730     2.3410 n          1 G9Y      -0.148800
     18 C28          2.2290    -6.8240     4.6710 c3         1 G9Y       0.198900
     19 C25          2.7750    -8.2390     2.1990 c3         1 G9Y      -0.005500
     20 C20         -0.5660    -6.4410     1.8020 ca         1 G9Y      -0.147600
     21 C17         -2.6950    -4.7080     2.2210 ca         1 G9Y      -0.073000
     22 N11         -1.4840    -0.2080     4.7490 na         1 G9Y       0.475900
     23 C26          3.1360    -8.7670     3.5920 c3         1 G9Y       0.198900
     24 C22          0.5630    -7.3720     1.5840 c          1 G9Y       0.613700
     25 O27          3.3690    -7.6630     4.4690 os         1 G9Y      -0.405600
     26 C21         -0.3340    -5.0700     1.8850 ca         1 G9Y      -0.090000
     27 H1          -0.3610    -0.5020    -0.8900 h1         1 G9Y       0.043700
     28 H2          -0.3610     1.0210     0.0100 h1         1 G9Y       0.043700
     29 H3          -0.5230    -2.5660     0.1830 h4         1 G9Y       0.136000
     30 H4          -2.1480    -3.3850     5.0380 ha         1 G9Y       0.131000
     31 H5          -2.2120    -1.2360     6.5230 h4         1 G9Y       0.145000
     32 H6           1.8910    -1.0210    -0.0110 hc         1 G9Y       0.027200
     33 H7           1.8910     0.5010     0.8900 hc         1 G9Y       0.027200
     34 H9           2.5880    -5.5050     3.0080 h1         1 G9Y       0.043700
     35 H10         -2.0490    -8.0000     1.8550 ha         1 G9Y       0.117000
     36 H11         -3.9270    -6.4540     2.2260 ha         1 G9Y       0.107000
     37 H15          1.7070     0.4130    -2.2080 ha         1 G9Y       0.101000
     38 H16          1.4080    -7.4180     5.0560 h1         1 G9Y       0.014950
     39 H17          2.4770    -6.0410     5.3770 h1         1 G9Y       0.014950
     40 H18          2.4590    -9.0610     1.5690 h1         1 G9Y       0.043700
     41 H19          3.6360    -7.7470     1.7630 h1         1 G9Y       0.043700
     42 H20         -3.5260    -4.0320     2.3850 ha         1 G9Y       0.112000
     43 H12         -1.4140     0.7350     5.0770 hn         1 G9Y       0.118700
     44 H21          4.0320    -9.3720     3.5270 h1         1 G9Y       0.014950
     45 H22          2.3160    -9.3640     3.9740 h1         1 G9Y       0.014950
     46 H23          0.6730    -4.6810     1.7920 ha         1 G9Y       0.118000
     47 O15         -0.4970     1.2020     2.3270 o          1 G9Y      -0.724500
     48 C1           2.8650     1.7260    -1.0940 c2         1 G9Y      -0.150000
     49 H8           0.8780    -5.6760     3.4490 h1         1 G9Y       0.043700
     50 H13          3.1910     2.0370    -0.1090 ha         1 G9Y       0.086500
     51 H14          3.2260     2.2460    -1.9730 ha         1 G9Y       0.086500
@<TRIPOS>BOND
     1     1     9 1   
     2     1    13 1   
     3     1    27 1   
     4     1    28 1   
     5     2     8 1   
     6     2    13 1   
     7     2    47 2   
     8     3     4 2   
     9     3    13 1   
    10     3    29 1   
    11     4     5 1   
    12     4    16 1   
    13     5     6 1   
    14     5     8 2   
    15     6     7 2   
    16     6    30 1   
    17     7    22 1   
    18     7    31 1   
    19     8    22 1   
    20     9    14 1   
    21     9    32 1   
    22     9    33 1   
    23    10    17 1   
    24    10    18 1   
    25    10    34 1   
    26    10    49 1   
    27    11    12 ar  
    28    11    20 ar  
    29    11    35 1   
    30    12    21 ar  
    31    12    36 1   
    32    14    37 1   
    33    14    48 2   
    34    15    24 2   
    35    16    21 ar  
    36    16    26 ar  
    37    17    19 1   
    38    17    24 1   
    39    18    25 1   
    40    18    38 1   
    41    18    39 1   
    42    19    23 1   
    43    19    40 1   
    44    19    41 1   
    45    20    24 1   
    46    20    26 ar  
    47    21    42 1   
    48    22    43 1   
    49    23    25 1   
    50    23    44 1   
    51    23    45 1   
    52    26    46 1   
    53    48    50 1   
    54    48    51 1   
@<TRIPOS>SUBSTRUCTURE
     1 G9Y         1 TEMP              0 ****  ****    0 ROOT
