@<TRIPOS>MOLECULE
molecule
   51    54     1     0     0
SMALL
bcc


@<TRIPOS>ATOM
      1 C4           0.0000     0.0000     0.0000 c3         1 G9Y       0.099000
      2 C14         -0.7050     0.0000     2.3150 c          1 G9Y       0.728100
      3 C6          -0.7090    -2.0460     1.1140 cc         1 G9Y      -0.014400
      4 C7          -1.1630    -2.7410     2.1900 cd         1 G9Y      -0.078400
      5 C8          -1.4140    -2.0170     3.4430 cd         1 G9Y      -0.053800
      6 C9          -1.8710    -2.3870     4.7230 cd         1 G9Y      -0.208000
      7 C10         -1.9020    -1.2740     5.4850 cc         1 G9Y      -0.115300
      8 C13         -1.1750    -0.6390     3.4780 cc         1 G9Y      -0.191900
      9 C3           1.5300     0.0000     0.0000 c3         1 G9Y      -0.068200
     10 C29          1.8210    -6.1960     3.3340 c3         1 G9Y       0.063000
     11 C19         -1.8670    -6.9350     1.9240 ca         1 G9Y      -0.079000
     12 C18         -2.9200    -6.0670     2.1320 ca         1 G9Y      -0.137000
     13 N5          -0.4880    -0.7020     1.1890 n          1 G9Y      -0.328000
     14 C2           2.0330     0.7230    -1.2230 c2         1 G9Y      -0.182200
     15 O23          0.4890    -8.2250     0.7220 o          1 G9Y      -0.602100
     16 C16         -1.4010    -4.2010     2.1010 ca         1 G9Y      -0.037800
     17 N24          1.6730    -7.2730     2.3410 n          1 G9Y      -0.490800
     18 C28          2.2290    -6.8240     4.6710 c3         1 G9Y       0.120900
     19 C25          2.7750    -8.2390     2.1990 c3         1 G9Y       0.063000
     20 C20         -0.5660    -6.4410     1.8020 ca         1 G9Y      -0.141600
     21 C17         -2.6950    -4.7080     2.2210 ca         1 G9Y      -0.096000
     22 N11         -1.4840    -0.2080     4.7490 na         1 G9Y      -0.122100
     23 C26          3.1360    -8.7670     3.5920 c3         1 G9Y       0.120900
     24 C22          0.5630    -7.3720     1.5840 c          1 G9Y       0.678700
     25 O27          3.3690    -7.6630     4.4690 os         1 G9Y      -0.420600
     26 C21         -0.3340    -5.0700     1.8850 ca         1 G9Y      -0.106000
     27 H1          -0.3610     1.0210     0.0100 h1         1 G9Y       0.071200
     28 H2          -0.3610    -0.5020    -0.8900 h1         1 G9Y       0.071200
     29 H3          -0.5230    -2.5660     0.1830 h4         1 G9Y       0.162000
     30 H4          -2.1480    -3.3850     5.0380 ha         1 G9Y       0.156000
     31 H5          -2.2120    -1.2360     6.5230 h4         1 G9Y       0.171000
     32 H6           1.8910    -1.0210    -0.0110 hc         1 G9Y       0.058200
     33 H7           1.8910     0.5010     0.8900 hc         1 G9Y       0.058200
     34 H9           2.5880    -5.5050     3.0080 h1         1 G9Y       0.068450
     35 H10         -2.0490    -8.0000     1.8550 ha         1 G9Y       0.147000
     36 H11         -3.9270    -6.4540     2.2260 ha         1 G9Y       0.137000
     37 H15          1.7070     0.4130    -2.2080 ha         1 G9Y       0.122000
     38 H16          2.4770    -6.0410     5.3770 h1         1 G9Y       0.055200
     39 H17          1.4080    -7.4180     5.0560 h1         1 G9Y       0.055200
     40 H18          3.6360    -7.7470     1.7630 h1         1 G9Y       0.068450
     41 H19          2.4590    -9.0610     1.5690 h1         1 G9Y       0.068450
     42 H20         -3.5260    -4.0320     2.3850 ha         1 G9Y       0.142000
     43 H12         -1.4140     0.7350     5.0770 hn         1 G9Y       0.313700
     44 H21          2.3160    -9.3640     3.9740 h1         1 G9Y       0.055200
     45 H22          4.0320    -9.3720     3.5270 h1         1 G9Y       0.055200
     46 H23          0.6730    -4.6810     1.7920 ha         1 G9Y       0.142000
     47 O15         -0.4970     1.2020     2.3270 o          1 G9Y      -0.669500
     48 C1           2.8650     1.7260    -1.0940 c2         1 G9Y      -0.205000
     49 H8           0.8780    -5.6760     3.4490 h1         1 G9Y       0.068450
     50 H13          3.2260     2.2460    -1.9730 ha         1 G9Y       0.116000
     51 H14          3.1910     2.0370    -0.1090 ha         1 G9Y       0.116000
@<TRIPOS>BOND
     1     1    13 1
     2     1     9 1
     3    13     2 1
     4    13     3 1
     5    47     2 2
     6    18    25 1
     7    18    10 1
     8    48    14 2
     9    14     9 1
    10     2     8 1
    11     3     4 2
    12     8     5 2
    13     8    22 1
    14    25    23 1
    15    10    17 1
    16     4     5 1
    17     4    16 1
    18    21    16 ar
    19    21    12 ar
    20     5     6 1
    21    22     7 1
    22    16    26 ar
    23    12    11 ar
    24     7     6 2
    25    26    20 ar
    26    11    20 ar
    27    23    19 1
    28    20    24 1
    29    17    24 1
    30    17    19 1
    31    24    15 2
    32     1    27 1
    33     1    28 1
    34     3    29 1
    35     6    30 1
    36     7    31 1
    37     9    32 1
    38     9    33 1
    39    10    49 1
    40    10    34 1
    41    11    35 1
    42    12    36 1
    43    48    50 1
    44    48    51 1
    45    14    37 1
    46    18    38 1
    47    18    39 1
    48    19    40 1
    49    19    41 1
    50    21    42 1
    51    22    43 1
    52    23    44 1
    53    23    45 1
    54    26    46 1
@<TRIPOS>SUBSTRUCTURE
     1 G9Y         1 TEMP              0 ****  ****    0 ROOT
