@<TRIPOS>MOLECULE
G9Z
   36    36     1     0     0
SMALL
bcc


@<TRIPOS>ATOM
      1 OAM          0.0000     0.0000     0.0000 o          1 G9Z      -0.736500
      2 CAB          1.2160     0.0000     0.0000 c          1 G9Z       0.605700
      3 CAC          2.0570     0.0000     1.2010 ce         1 G9Z      -0.295200
      4 CB           3.3400    -0.0010     0.8520 c2         1 G9Z      -0.015200
      5 CA           3.3880    -0.0010    -0.6580 c3         1 G9Z      -0.103100
      6 C            4.0900    -1.2370    -1.1570 c          1 G9Z       0.989600
      7 O            3.5000    -2.0290    -1.8530 o          1 G9Z      -0.877800
      8 N            1.9880    -0.0060    -1.1030 n          1 G9Z      -0.088800
      9 CAG          1.5180    -0.0140    -2.4910 c3         1 G9Z       0.055000
     10 CAH          1.3550     1.4250    -2.9820 c3         1 G9Z       0.136100
     11 OAP          2.6330     2.0640    -3.0200 oh         1 G9Z      -0.580800
     12 CAI          0.7470     1.4190    -4.3870 c3         1 G9Z       0.167100
     13 OAQ         -0.5310     0.7800    -4.3490 oh         1 G9Z      -0.571800
     14 CAJ          0.5840     2.8590    -4.8780 c3         1 G9Z       0.168100
     15 OAR         -0.1830     3.6020    -3.9280 oh         1 G9Z      -0.567800
     16 CAK         -0.1370     2.8580    -6.2270 c3         1 G9Z       0.157100
     17 OAT          0.6290     2.1150    -7.1760 oh         1 G9Z      -0.585800
     18 CAL         -0.3010     4.2980    -6.7190 c3         1 G9Z       0.185400
     19 OAS         -1.0750     4.3060    -7.9200 oh         1 G9Z      -0.598800
     20 OXT          5.3720    -1.4600    -0.8260 o          1 G9Z      -0.877800
     21 H1           1.7370    -0.5350     2.0870 ha         1 G9Z       0.128000
     22 H2           4.0560     0.5840     1.4160 ha         1 G9Z       0.114000
     23 H3           3.8890     0.8910    -1.0150 h1         1 G9Z       0.045700
     24 H4           2.2400    -0.5280    -3.1140 h1         1 G9Z       0.055700
     25 H5           0.5650    -0.5250    -2.5470 h1         1 G9Z       0.055700
     26 H6           0.7010     1.9650    -2.3080 h1         1 G9Z       0.032700
     27 H7           2.5920     2.8770    -2.5440 ho         1 G9Z       0.378000
     28 H8           1.4010     0.8790    -5.0610 h1         1 G9Z       0.032700
     29 H9          -0.5050    -0.0070    -4.8680 ho         1 G9Z       0.386000
     30 H10          1.5600     3.3150    -4.9900 h1         1 G9Z       0.020700
     31 H11          0.2420     4.4260    -3.7560 ho         1 G9Z       0.376000
     32 H12         -1.1130     2.4020    -6.1150 h1         1 G9Z       0.035700
     33 H13          0.0610     1.7960    -7.8580 ho         1 G9Z       0.397000
     34 H14          0.6750     4.7260    -6.9160 h1         1 G9Z      -0.005800
     35 H15         -0.8060     4.8840    -5.9600 h1         1 G9Z      -0.005800
     36 H16         -1.2070     5.1960    -8.2030 ho         1 G9Z       0.386000
@<TRIPOS>BOND
     1     1     2 2   
     2     2     3 1   
     3     2     8 1   
     4     3     4 2   
     5     3    21 1   
     6     4     5 1   
     7     4    22 1   
     8     5     6 1   
     9     5     8 1   
    10     5    23 1   
    11     6     7 1   
    12     6    20 1   
    13     8     9 1   
    14     9    10 1   
    15     9    24 1   
    16     9    25 1   
    17    10    11 1   
    18    10    12 1   
    19    10    26 1   
    20    11    27 1   
    21    12    13 1   
    22    12    14 1   
    23    12    28 1   
    24    13    29 1   
    25    14    15 1   
    26    14    16 1   
    27    14    30 1   
    28    15    31 1   
    29    16    17 1   
    30    16    18 1   
    31    16    32 1   
    32    17    33 1   
    33    18    19 1   
    34    18    34 1   
    35    18    35 1   
    36    19    36 1   
@<TRIPOS>SUBSTRUCTURE
     1 G9Z         1 TEMP              0 ****  ****    0 ROOT
