@<TRIPOS>MOLECULE
GA0
   52    54     1     0     0
SMALL
bcc


@<TRIPOS>ATOM
      1 N1           0.0000     0.0000     0.0000 nz         1 GA0       0.111400
      2 CA1          1.4700     0.0000     0.0000 c3         1 GA0      -0.142200
      3 C1           1.9760     0.0000     1.4200 c          1 GA0       0.561100
      4 O1           1.2370     0.0000     2.4010 o          1 GA0      -0.623100
      5 N2           3.3710     0.0040     1.4740 ns         1 GA0      -0.102900
      6 CA2          4.1190     0.0070     2.6960 c3         1 GA0      -0.083300
      7 CB2          5.4940    -0.5960     2.5280 c3         1 GA0       0.005900
      8 C2           4.2150     1.4640     3.0710 c          1 GA0       0.589100
      9 O2           4.3040     2.3280     2.1970 o          1 GA0      -0.646100
     10 N3           4.2070     1.7310     4.4310 n          1 GA0      -0.118800
     11 CD3          4.1040     0.7400     5.4990 c3         1 GA0       0.051000
     12 CA3          4.1310     3.0860     4.9630 c3         1 GA0      -0.075300
     13 CB3          3.6870     2.9100     6.4090 c3         1 GA0      -0.021400
     14 CG3          4.2400     1.5390     6.7870 c3         1 GA0      -0.032400
     15 C3           5.5070     3.6750     4.8700 c          1 GA0       0.583100
     16 O3           6.5030     2.9600     4.9450 o          1 GA0      -0.606100
     17 NN           5.4530     5.0520     4.7050 ns         1 GA0      -0.041100
     18 C4           6.5410     5.9490     4.5810 ca         1 GA0      -0.078400
     19 C5           6.2880     7.3010     4.4230 ca         1 GA0      -0.141000
     20 C6           7.3570     8.2050     4.2990 ca         1 GA0      -0.005000
     21 C7           8.6850     7.7150     4.3370 ca         1 GA0      -0.053000
     22 C8           9.7530     8.6180     4.2120 ca         1 GA0      -0.077000
     23 C9           9.5160     9.9840     4.0540 ca         1 GA0      -0.101000
     24 C10          8.2110    10.4650     4.0160 ca         1 GA0      -0.082000
     25 C11          7.1380     9.5830     4.1380 ca         1 GA0      -0.104000
     26 C12          8.9040     6.3370     4.4970 ca         1 GA0      -0.048000
     27 C13          7.8310     5.4550     4.6190 ca         1 GA0      -0.145000
     28 HN11        -0.3340    -0.8130     0.4780 hn         1 GA0       0.227467
     29 HN12        -0.3340    -0.0080    -0.9440 hn         1 GA0       0.227467
     30 HA11         1.8300    -0.8840    -0.5110 hx         1 GA0       0.097700
     31 HA12         1.8300     0.8840    -0.5110 hx         1 GA0       0.097700
     32 HN2          3.8770     0.0040     0.6110 hn         1 GA0       0.186500
     33 HA2          3.5730    -0.5330     3.4600 h1         1 GA0       0.068700
     34 HB21         5.9720    -0.6800     3.4970 hc         1 GA0       0.028700
     35 HB22         6.0910     0.0390     1.8850 hc         1 GA0       0.028700
     36 HB23         5.4060    -1.5790     2.0830 hc         1 GA0       0.028700
     37 HD31         4.9070     0.0170     5.4190 h1         1 GA0       0.022700
     38 HD32         3.1400     0.2470     5.4630 h1         1 GA0       0.022700
     39 HA3          3.4130     3.6760     4.4070 h1         1 GA0       0.050700
     40 HB31         2.6060     2.9160     6.4780 hc         1 GA0       0.033700
     41 HB32         4.1200     3.6810     7.0360 hc         1 GA0       0.033700
     42 HG31         3.6460     1.0930     7.5760 hc         1 GA0       0.042200
     43 HG32         5.2810     1.6160     7.0790 hc         1 GA0       0.042200
     44 HNN          4.5380     5.4580     4.6690 hn         1 GA0       0.163500
     45 H5           5.2680     7.6660     4.4210 ha         1 GA0       0.108000
     46 H8          10.7720     8.2500     4.2410 ha         1 GA0       0.107000
     47 H9          10.3490    10.6700     3.9590 ha         1 GA0       0.108000
     48 H10          8.0280    11.5250     3.8930 ha         1 GA0       0.106000
     49 H11          6.1240     9.9640     4.1080 ha         1 GA0       0.104000
     50 H12          9.9180     5.9560     4.5260 ha         1 GA0       0.108000
     51 H13          8.0070     4.4220     4.8930 ha         1 GA0       0.152000
     52 H131        -0.3340     0.8120     0.4810 hn         1 GA0       0.227467
@<TRIPOS>BOND
     1     1     2 1   
     2     1    28 1   
     3     1    29 1   
     4     1    52 1   
     5     2     3 1   
     6     2    30 1   
     7     2    31 1   
     8     3     4 2   
     9     3     5 1   
    10     5     6 1   
    11     5    32 1   
    12     6     7 1   
    13     6     8 1   
    14     6    33 1   
    15     7    34 1   
    16     7    35 1   
    17     7    36 1   
    18     8     9 2   
    19     8    10 1   
    20    10    11 1   
    21    10    12 1   
    22    11    14 1   
    23    11    37 1   
    24    11    38 1   
    25    12    13 1   
    26    12    15 1   
    27    12    39 1   
    28    13    14 1   
    29    13    40 1   
    30    13    41 1   
    31    14    42 1   
    32    14    43 1   
    33    15    16 2   
    34    15    17 1   
    35    17    18 1   
    36    17    44 1   
    37    18    19 ar  
    38    18    27 ar  
    39    19    20 ar  
    40    19    45 1   
    41    20    21 ar  
    42    20    25 ar  
    43    21    22 ar  
    44    21    26 ar  
    45    22    23 ar  
    46    22    46 1   
    47    23    24 ar  
    48    23    47 1   
    49    24    25 ar  
    50    24    48 1   
    51    25    49 1   
    52    26    27 ar  
    53    26    50 1   
    54    27    51 1   
@<TRIPOS>SUBSTRUCTURE
     1 GA0         1 TEMP              0 ****  ****    0 ROOT
