@<TRIPOS>MOLECULE
molecule
   32    33     1     0     0
SMALL
bcc


@<TRIPOS>ATOM
      1 N1           0.0000     0.0000     0.0000 ns         1 GA2      -0.467400
      2 C2           1.3630     0.0000     0.0000 cc         1 GA2       0.440800
      3 C4           1.4520    -0.0040     2.3070 cd         1 GA2       0.006800
      4 C8           0.7950    -0.0100     4.4110 cd         1 GA2       0.528400
      5 C4'          4.8970     0.7240     7.1700 c3         1 GA2       0.137400
      6 O4'          4.1440     0.0460     8.1760 oh         1 GA2      -0.568300
      7 C3'          5.2250    -1.4350     5.9590 c3         1 GA2       0.137400
      8 O3'          4.4710    -2.1140     6.9650 oh         1 GA2      -0.568300
      9 C2'          4.7250     0.0050     5.8320 c3         1 GA2       0.141100
     10 O1'          3.3440    -0.0010     5.4680 os         1 GA2      -0.383600
     11 N9           1.8950    -0.0040     3.6020 na         1 GA2      -0.161900
     12 N3           2.0580     0.0000     1.1150 nd         1 GA2      -0.551100
     13 N2           2.0280     0.0040    -1.2000 nz         1 GA2      -0.724600
     14 C6          -0.6810    -0.0100     1.1670 c          1 GA2       0.622000
     15 O6          -1.9010    -0.0140     1.1770 o          1 GA2      -0.524500
     16 C5           0.0550    -0.0090     2.3740 cc         1 GA2       0.319800
     17 N7          -0.2860    -0.0120     3.6860 nc         1 GA2      -0.619000
     18 HN1         -0.4980     0.0000    -0.8680 hn         1 GA2       0.349500
     19 H8           0.8190    -0.0130     5.4940 h5         1 GA2       0.123100
     20 H4'1         4.5510     1.7480     7.0890 h1         1 GA2       0.030200
     21 H4'2         5.9460     0.7180     7.4400 h1         1 GA2       0.030200
     22 HO4'         4.1110     0.5750     8.9550 ho         1 GA2       0.405500
     23 H3'1         5.0980    -1.9410     5.0100 h1         1 GA2       0.030200
     24 H3'2         6.2730    -1.4360     6.2310 h1         1 GA2       0.030200
     25 HO3'         4.6970    -3.0290     6.9630 ho         1 GA2       0.405500
     26 H2'          5.2970     0.5190     5.0700 h1         1 GA2       0.048700
     27 H1'1         3.7850     0.8880     3.6620 h2         1 GA2       0.057200
     28 H1'2         3.7920    -0.8800     3.6600 h2         1 GA2       0.057200
     29 HN21         1.7820     0.8260    -1.7160 hn         1 GA2       0.476467
     30 HN22         1.7730    -0.8080    -1.7260 hn         1 GA2       0.476467
     31 C1'          3.2910     0.0010     4.0400 c3         1 GA2       0.238100
     32 H23          3.0150    -0.0020    -1.0340 hn         1 GA2       0.476467
@<TRIPOS>BOND
     1     1     2 1
     2     1    14 1
     3     1    18 1
     4     2    12 2
     5     2    13 1
     6     3    11 1
     7     3    12 1
     8     3    16 2
     9     4    11 1
    10     4    17 2
    11     4    19 1
    12     5     6 1
    13     5     9 1
    14     5    20 1
    15     5    21 1
    16     6    22 1
    17     7     8 1
    18     7     9 1
    19     7    23 1
    20     7    24 1
    21     8    25 1
    22     9    10 1
    23     9    26 1
    24    10    31 1
    25    31    11 1
    26    31    27 1
    27    31    28 1
    28    13    29 1
    29    13    30 1
    30    14    15 2
    31    14    16 1
    32    16    17 1
    33    32    13 1
@<TRIPOS>SUBSTRUCTURE
     1 GA2         1 TEMP              0 ****  ****    0 ROOT
