@<TRIPOS>MOLECULE
GA3
   46    50     1     0     0
SMALL
bcc


@<TRIPOS>ATOM
      1 O71        -0.0450    0.2000    0.4170 o         1 GA3     -0.833300
      2 C7          1.1660   -0.1180    0.2630 c         1 GA3      0.916600
      3 O72         1.6630   -0.5250   -0.8260 o         1 GA3     -0.833300
      4 C6          2.0920   -0.0180    1.5070 c3        1 GA3     -0.169700
      5 C5          3.3570   -0.8370    1.3100 c3        1 GA3     -0.080700
      6 C8          2.5560    1.4110    1.8130 c3        1 GA3     -0.015000
      7 C15         2.1520    2.4750    0.7700 c3        1 GA3     -0.054200
      8 C16         2.1630    3.7730    1.5190 c2        1 GA3     -0.107400
      9 C17         1.9990    4.9830    0.9930 c2        1 GA3     -0.259000
     10 C13         2.3890    3.4590    2.9920 c3        1 GA3      0.170000
     11 C14         1.9450    1.9830    3.1050 c3        1 GA3     -0.062400
     12 O13         1.6290    4.2490    3.8860 oh        1 GA3     -0.585800
     13 C12         3.8910    3.5640    3.3060 c3        1 GA3     -0.092400
     14 C11         4.6080    2.2360    3.1380 c3        1 GA3     -0.063400
     15 C9          4.1080    1.4080    1.9670 c3        1 GA3     -0.041700
     16 C10         4.4950   -0.0600    2.0470 c3        1 GA3      0.152000
     17 O92         4.4420   -0.5430    3.4330 os        1 GA3     -0.410900
     18 C1          5.7920   -0.5410    1.4720 c2        1 GA3     -0.148200
     19 C2          5.9020   -1.8390    1.1570 c2        1 GA3     -0.199200
     20 C3          4.7980   -2.8500    1.3610 c3        1 GA3      0.184300
     21 O31         4.5130   -3.5110    0.1430 oh        1 GA3     -0.600800
     22 C4          3.5220   -2.2110    1.9860 c3        1 GA3     -0.147000
     23 C18         2.3310   -3.1210    1.9190 c3        1 GA3     -0.072100
     24 C19         3.8970   -1.8140    3.4120 c         1 GA3      0.722600
     25 O91         3.8220   -2.3910    4.4910 o         1 GA3     -0.599500
     26 H6          1.5060   -0.4020    2.3840 hc        1 GA3      0.056700
     27 H5          3.5510   -0.9140    0.2050 hc        1 GA3      0.118700
     28 H15         2.8400    2.4860   -0.1090 hc        1 GA3      0.088200
     29 H15A        1.1140    2.2560    0.3950 hc        1 GA3      0.088200
     30 H17         1.8390    5.1320   -0.0820 ha        1 GA3      0.103000
     31 H17A        2.0030    5.8980    1.5960 ha        1 GA3      0.103000
     32 H14         2.3270    1.4920    4.0280 hc        1 GA3      0.069200
     33 H14A        0.8310    1.9050    3.0850 hc        1 GA3      0.069200
     34 HO13        1.7670    5.1680    3.6290 ho        1 GA3      0.390000
     35 H12         4.0120    3.9130    4.3640 hc        1 GA3      0.036700
     36 H12A        4.3550    4.3370    2.6400 hc        1 GA3      0.036700
     37 H11         5.7050    2.4280    3.0010 hc        1 GA3      0.045200
     38 H11A        4.4990    1.6420    4.0860 hc        1 GA3      0.045200
     39 H9          4.5640    1.8140    1.0210 hc        1 GA3      0.056700
     40 H1          6.5970    0.1900    1.3300 ha        1 GA3      0.129000
     41 H2          6.8140   -2.2560    0.7060 ha        1 GA3      0.128000
     42 H3          5.1670   -3.6730    2.0400 h1        1 GA3      0.075700
     43 HO31        4.0140   -2.8950   -0.4140 ho        1 GA3      0.426000
     44 H18         1.4330   -2.6180    2.3530 hc        1 GA3      0.054367
     45 H18A        2.1110   -3.3770    0.8530 hc        1 GA3      0.054367
     46 H18B        2.5340   -4.0610    2.4880 hc        1 GA3      0.054367
@<TRIPOS>BOND
     1    1    2 1   
     2    2    3 1   
     3    2    4 1   
     4    4    5 1   
     5    4    6 1   
     6    4   26 1   
     7    5   16 1   
     8    5   22 1   
     9    5   27 1   
    10    6    7 1   
    11    6   11 1   
    12    6   15 1   
    13    7    8 1   
    14    7   28 1   
    15    7   29 1   
    16    8    9 2   
    17    8   10 1   
    18    9   30 1   
    19    9   31 1   
    20   10   11 1   
    21   10   12 1   
    22   10   13 1   
    23   11   32 1   
    24   11   33 1   
    25   12   34 1   
    26   13   14 1   
    27   13   35 1   
    28   13   36 1   
    29   14   15 1   
    30   14   37 1   
    31   14   38 1   
    32   15   16 1   
    33   15   39 1   
    34   16   17 1   
    35   16   18 1   
    36   17   24 1   
    37   18   19 2   
    38   18   40 1   
    39   19   20 1   
    40   19   41 1   
    41   20   21 1   
    42   20   22 1   
    43   20   42 1   
    44   21   43 1   
    45   22   23 1   
    46   22   24 1   
    47   23   44 1   
    48   23   45 1   
    49   23   46 1   
    50   24   25 2   
@<TRIPOS>SUBSTRUCTURE
     1 GA3         1 TEMP              0 ****  ****    0 ROOT
