@<TRIPOS>MOLECULE
molecule
   46    50     1     0     0
SMALL
bcc


@<TRIPOS>ATOM
      1 O71          0.0000     0.0000     0.0000 o          1 GA3      -0.840300
      2 C7           1.3430     0.0000     0.0000 c          1 GA3       0.895600
      3 O72          1.9470     0.0000    -1.0460 o          1 GA3      -0.840300
      4 C6           2.0960     0.0000     1.3060 c3         1 GA3      -0.161700
      5 C5           3.3940    -0.8160     1.1700 c3         1 GA3      -0.054700
      6 C8           2.5350     1.4160     1.6600 c3         1 GA3      -0.021000
      7 C15          2.0080     2.5450     0.7850 c3         1 GA3      -0.034200
      8 C16          2.0490     3.7740     1.6880 c2         1 GA3      -0.091400
      9 C17          1.7970     5.0090     1.3310 c2         1 GA3      -0.230000
     10 C13          2.4350     3.3000     3.0770 c3         1 GA3       0.175000
     11 C14          2.0780     1.7870     3.0880 c3         1 GA3      -0.108400
     12 O13          1.7200     4.0140     4.0880 oh         1 GA3      -0.600800
     13 C12          3.9450     3.3760     3.2820 c3         1 GA3      -0.088400
     14 C11          4.7340     2.5820     2.2640 c3         1 GA3      -0.048400
     15 C9           4.0740     1.4230     1.6210 c3         1 GA3      -0.048700
     16 C10          4.4240     0.0220     2.0230 c3         1 GA3       0.149000
     17 O92          4.0620    -0.2880     3.3980 os         1 GA3      -0.394900
     18 C1           5.7700    -0.5350     1.7150 c2         1 GA3      -0.141200
     19 C2           5.8780    -1.8390     1.5900 c2         1 GA3      -0.186200
     20 C3           4.7320    -2.7990     1.7170 c3         1 GA3       0.194300
     21 O31          4.5730    -3.4990     0.4820 oh         1 GA3      -0.580800
     22 C4           3.4110    -2.0810     2.0580 c3         1 GA3      -0.171000
     23 C18          2.1830    -2.9710     1.8540 c3         1 GA3      -0.055100
     24 C19          3.5250    -1.5190     3.4640 c          1 GA3       0.744600
     25 O91          3.1900    -2.0860     4.4770 o          1 GA3      -0.596500
     26 H6           1.4810    -0.4080     2.0990 hc         1 GA3       0.063700
     27 H5           3.7160    -0.9840     0.1490 hc         1 GA3       0.131700
     28 H15          2.6490     2.6870    -0.0770 hc         1 GA3       0.085200
     29 H15A         0.9910     2.3390     0.4730 hc         1 GA3       0.085200
     30 H17          1.8580     5.8070     2.0610 ha         1 GA3       0.110000
     31 H17A         1.5290     5.2320     0.3050 ha         1 GA3       0.110000
     32 H14          2.6500     1.2520     3.8370 hc         1 GA3       0.066700
     33 H14A         1.0130     1.6330     3.2140 hc         1 GA3       0.066700
     34 HO13         1.9860     3.7050     4.9380 ho         1 GA3       0.393000
     35 H12          4.1800     3.0010     4.2710 hc         1 GA3       0.034700
     36 H12A         4.2500     4.4140     3.2230 hc         1 GA3       0.034700
     37 H11          5.0360     3.2650     1.4790 hc         1 GA3       0.032200
     38 H11A         5.6300     2.2200     2.7540 hc         1 GA3       0.032200
     39 H9           4.3410     1.4980     0.5730 hc         1 GA3       0.074700
     40 H1           6.6550     0.0690     1.8710 ha         1 GA3       0.126000
     41 H2           6.8560    -2.2550     1.3800 ha         1 GA3       0.112000
     42 H3           4.9560    -3.5130     2.5000 h1         1 GA3       0.034700
     43 HO31         5.0970    -4.2830     0.4950 ho         1 GA3       0.389000
     44 H18          2.2780    -3.8630     2.4610 hc         1 GA3       0.051367
     45 H18A         2.1090    -3.2510     0.8100 hc         1 GA3       0.051367
     46 H18B         1.2920    -2.4280     2.1460 hc         1 GA3       0.051367
@<TRIPOS>BOND
     1     1     2 1
     2     2     3 1
     3     2     4 1
     4     4     5 1
     5     4     6 1
     6     5    16 1
     7     5    22 1
     8     6     7 1
     9     6    11 1
    10     6    15 1
    11     7     8 1
    12     8     9 2
    13     8    10 1
    14    10    11 1
    15    10    12 1
    16    10    13 1
    17    13    14 1
    18    14    15 1
    19    15    16 1
    20    16    17 1
    21    16    18 1
    22    17    24 1
    23    18    19 2
    24    19    20 1
    25    20    21 1
    26    20    22 1
    27    22    23 1
    28    22    24 1
    29    24    25 2
    30     4    26 1
    31     5    27 1
    32     7    28 1
    33     7    29 1
    34     9    30 1
    35     9    31 1
    36    11    32 1
    37    11    33 1
    38    12    34 1
    39    13    35 1
    40    13    36 1
    41    14    37 1
    42    14    38 1
    43    15    39 1
    44    18    40 1
    45    19    41 1
    46    20    42 1
    47    21    43 1
    48    23    44 1
    49    23    45 1
    50    23    46 1
@<TRIPOS>SUBSTRUCTURE
     1 GA3         1 TEMP              0 ****  ****    0 ROOT
