@<TRIPOS>MOLECULE
GA4
   47    51     1     0     0
SMALL
bcc


@<TRIPOS>ATOM
      1 C1         -0.1300   -0.1210    0.0100 c3        1 GA4     -0.080400
      2 C2          1.3070   -0.6120    0.1160 c3        1 GA4     -0.114400
      3 C3          2.0300   -0.3990    1.4570 c3        1 GA4      0.156100
      4 O31         1.9090   -1.5360    2.2870 oh        1 GA4     -0.607800
      5 C4          1.5930    0.9120    2.1630 c3        1 GA4     -0.145000
      6 C5          0.0600    0.8660    2.2840 c3        1 GA4     -0.083700
      7 C6         -0.6680    1.8990    3.1320 c3        1 GA4     -0.170700
      8 C7         -1.1110    1.2900    4.4910 c         1 GA4      0.916600
      9 O71        -1.2230    0.0340    4.5810 o         1 GA4     -0.834800
     10 O72        -1.3210    2.0920    5.4410 o         1 GA4     -0.834800
     11 C8         -1.8400    2.4000    2.2800 c3        1 GA4     -0.015000
     12 C9         -1.7180    1.7800    0.8570 c3        1 GA4     -0.043700
     13 C10        -0.3270    1.1600    0.8060 c3        1 GA4      0.129800
     14 C11        -1.9900    2.7680   -0.2650 c3        1 GA4     -0.065400
     15 C12        -3.1560    3.7060    0.0040 c3        1 GA4     -0.061400
     16 C13        -3.2530    4.1230    1.4700 c3        1 GA4     -0.040500
     17 C14        -1.8780    3.9330    2.1340 c3        1 GA4     -0.075400
     18 C15        -3.2470    2.1040    2.8430 c3        1 GA4     -0.053200
     19 C16        -4.1290    3.1470    2.2230 c2        1 GA4     -0.083400
     20 C17        -5.4520    3.2190    2.3270 c2        1 GA4     -0.265000
     21 C18         2.3480    1.1420    3.4400 c3        1 GA4     -0.077100
     22 C19         1.7870    2.0170    1.1260 c         1 GA4      0.724600
     23 O91         2.7230    2.7630    0.8570 o         1 GA4     -0.605500
     24 O92         0.6590    2.1370    0.3360 os        1 GA4     -0.414900
     25 H11        -0.3810    0.0540   -1.0670 hc        1 GA4      0.049200
     26 H12        -0.8350   -0.8950    0.4080 hc        1 GA4      0.049200
     27 H21         1.9120   -0.0810   -0.6670 hc        1 GA4      0.048700
     28 H22         1.3330   -1.7090   -0.1150 hc        1 GA4      0.048700
     29 H3          3.1400   -0.3400    1.2550 h1        1 GA4      0.065700
     30 HO3         1.0680   -1.4840    2.7630 ho        1 GA4      0.426000
     31 H5         -0.2980   -0.1490    2.6090 hc        1 GA4      0.114700
     32 H6          0.0050    2.7670    3.3610 hc        1 GA4      0.054700
     33 H9         -2.4540    0.9330    0.7700 hc        1 GA4      0.054700
     34 H111       -1.0670    3.3820   -0.4490 hc        1 GA4      0.041700
     35 H112       -2.1900    2.1950   -1.2090 hc        1 GA4      0.041700
     36 H121       -3.0290    4.6220   -0.6310 hc        1 GA4      0.028200
     37 H122       -4.1160    3.2180   -0.3060 hc        1 GA4      0.028200
     38 H13        -3.6290    5.1710    1.5590 hc        1 GA4      0.046700
     39 H141       -1.0400    4.3300    1.5190 hc        1 GA4      0.056700
     40 H142       -1.8470    4.4160    3.1410 hc        1 GA4      0.056700
     41 H151       -3.5850    1.0660    2.6090 hc        1 GA4      0.083700
     42 H152       -3.2360    2.2190    3.9620 hc        1 GA4      0.083700
     43 H171       -6.0360    4.0210    1.8600 ha        1 GA4      0.101500
     44 H172       -6.0340    2.4820    2.8930 ha        1 GA4      0.101500
     45 H181        3.4100    1.4050    3.2170 hc        1 GA4      0.054367
     46 H182        1.8830    1.9700    4.0290 hc        1 GA4      0.054367
     47 H183        2.3230    0.2110    4.0610 hc        1 GA4      0.054367
@<TRIPOS>BOND
     1    1    2 1
     2    1   13 1
     3    1   25 1
     4    1   26 1
     5    2    3 1
     6    2   27 1
     7    2   28 1
     8    3    4 1
     9    3    5 1
    10    3   29 1
    11    4   30 1
    12    5    6 1
    13    5   21 1
    14    5   22 1
    15    6    7 1
    16    6   13 1
    17    6   31 1
    18    7    8 1
    19    7   11 1
    20    7   32 1
    21    8    9 1
    22    8   10 1
    23   11   12 1
    24   11   17 1
    25   11   18 1
    26   12   13 1
    27   12   14 1
    28   12   33 1
    29   13   24 1
    30   14   15 1
    31   14   34 1
    32   14   35 1
    33   15   16 1
    34   15   36 1
    35   15   37 1
    36   16   17 1
    37   16   19 1
    38   16   38 1
    39   17   39 1
    40   17   40 1
    41   18   19 1
    42   18   41 1
    43   18   42 1
    44   19   20 2
    45   20   43 1
    46   20   44 1
    47   21   45 1
    48   21   46 1
    49   21   47 1
    50   22   23 2
    51   22   24 1
@<TRIPOS>SUBSTRUCTURE
     1 GA4         1 TEMP              0 ****  ****    0 ROOT
