@<TRIPOS>MOLECULE
GA6
   32    33     1     0     0
SMALL
bcc


@<TRIPOS>ATOM
      1 N            0.0000     0.0000     0.0000 nu         1 GA6      -0.402500
      2 C           -0.3220     2.6890    -0.4460 c3         1 GA6       0.012700
      3 O            8.3770    -0.0940    -2.1210 o          1 GA6      -0.883300
      4 C1           1.3960     0.0000     0.0000 ca         1 GA6       0.012600
      5 C10          8.3010    -0.0120     1.4640 ca         1 GA6      -0.064000
      6 C11          7.8310    -0.0410     0.1490 ca         1 GA6      -0.104600
      7 C12          8.7870    -0.0700    -0.9780 c          1 GA6       0.973200
      8 C13          6.4580    -0.0400    -0.0980 ca         1 GA6      -0.105000
      9 C2           2.0900     0.0000     1.2050 ca         1 GA6      -0.148500
     10 C3           3.4680    -0.0000     1.2080 ca         1 GA6      -0.098000
     11 C4           2.0900    -0.0060    -1.2040 ca         1 GA6      -0.148500
     12 C5           3.4680    -0.0060    -1.2050 ca         1 GA6      -0.098000
     13 C6           4.1660     0.0000     0.0010 cp         1 GA6      -0.012000
     14 C7           5.5660    -0.0130     0.9690 cp         1 GA6      -0.050000
     15 C8           6.0480     0.0140     2.2770 ca         1 GA6      -0.108000
     16 C9           7.4080     0.0150     2.5170 ca         1 GA6      -0.138000
     17 O1          10.1110    -0.0700    -0.7370 o          1 GA6      -0.883300
     18 O2          -0.3150     0.7600    -2.2900 o          1 GA6      -0.594800
     19 O3          -2.1940     0.8020    -0.6810 o          1 GA6      -0.594800
     20 S           -0.8280     1.0350    -0.9930 s6         1 GA6       0.947900
     21 H1          -1.1310     3.3890    -0.6170 h1         1 GA6       0.064700
     22 H            0.5520     3.0030    -1.0040 h1         1 GA6       0.064700
     23 H2          -0.0850     2.6630     0.6110 h1         1 GA6       0.064700
     24 H10          9.3670    -0.0120     1.6580 ha         1 GA6       0.130000
     25 H12          6.0890    -0.0620    -1.1160 ha         1 GA6       0.134000
     26 H4           1.5470    -0.0000     2.1420 ha         1 GA6       0.127500
     27 H5           4.0080     0.0020     2.1470 ha         1 GA6       0.129000
     28 H6           1.5470    -0.0110    -2.1420 ha         1 GA6       0.127500
     29 H7           4.0090    -0.0090    -2.1440 ha         1 GA6       0.129000
     30 H8           5.3530     0.0360     3.1080 ha         1 GA6       0.086000
     31 H9           7.7760     0.0360     3.5360 ha         1 GA6       0.088000
     32 H3          -0.5000    -0.6520     0.5710 hn         1 GA6       0.342800
@<TRIPOS>BOND
     1     1     4 1   
     2     1    20 1   
     3     1    32 1   
     4     2    20 1   
     5     2    21 1   
     6     2    22 1   
     7     2    23 1   
     8     3     7 1   
     9     4     9 ar  
    10     4    11 ar  
    11     5     6 ar  
    12     5    16 ar  
    13     5    24 1   
    14     6     7 1   
    15     6     8 ar  
    16     7    17 1   
    17     8    14 ar  
    18     8    25 1   
    19     9    10 ar  
    20     9    26 1   
    21    10    13 ar  
    22    10    27 1   
    23    11    12 ar  
    24    11    28 1   
    25    12    13 ar  
    26    12    29 1   
    27    13    14 1   
    28    14    15 ar  
    29    15    16 ar  
    30    15    30 1   
    31    16    31 1   
    32    18    20 2   
    33    19    20 2   
@<TRIPOS>SUBSTRUCTURE
     1 GA6         1 TEMP              0 ****  ****    0 ROOT
