@<TRIPOS>MOLECULE
molecule
   32    33     1     0     0
SMALL
bcc


@<TRIPOS>ATOM
      1 N            0.0000     0.0000     0.0000 nu         1 GA6      -0.767500
      2 C           -0.3220     2.6890    -0.4460 c3         1 GA6      -0.244300
      3 O            8.3770    -0.0940    -2.1210 o          1 GA6      -0.834800
      4 C1           1.3960     0.0000     0.0000 ca         1 GA6       0.092600
      5 C10          8.3010    -0.0120     1.4640 ca         1 GA6      -0.091000
      6 C11          7.8310    -0.0410     0.1490 ca         1 GA6      -0.108600
      7 C12          8.7870    -0.0700    -0.9780 c          1 GA6       0.881200
      8 C13          6.4580    -0.0400    -0.0980 ca         1 GA6      -0.106000
      9 C2           2.0900     0.0000     1.2050 ca         1 GA6      -0.159000
     10 C3           3.4680    -0.0000     1.2080 ca         1 GA6      -0.111500
     11 C4           2.0900    -0.0060    -1.2040 ca         1 GA6      -0.159000
     12 C5           3.4680    -0.0060    -1.2050 ca         1 GA6      -0.111500
     13 C6           4.1660     0.0000     0.0010 cp         1 GA6      -0.032000
     14 C7           5.5660    -0.0130     0.9690 cp         1 GA6      -0.062000
     15 C8           6.0480     0.0140     2.2770 ca         1 GA6      -0.128000
     16 C9           7.4080     0.0150     2.5170 ca         1 GA6      -0.156000
     17 O1          10.1110    -0.0700    -0.7370 o          1 GA6      -0.834800
     18 O2          -0.3150     0.7600    -2.2900 o          1 GA6      -0.638300
     19 O3          -2.1940     0.8020    -0.6810 o          1 GA6      -0.638300
     20 S           -0.8280     1.0350    -0.9930 s6         1 GA6       1.327900
     21 H1          -1.1310     3.3890    -0.6170 h1         1 GA6       0.099700
     22 H            0.5520     3.0030    -1.0040 h1         1 GA6       0.099700
     23 H2          -0.0850     2.6630     0.6110 h1         1 GA6       0.099700
     24 H10          9.3670    -0.0120     1.6580 ha         1 GA6       0.157000
     25 H12          6.0890    -0.0620    -1.1160 ha         1 GA6       0.153000
     26 H4           1.5470    -0.0000     2.1420 ha         1 GA6       0.146000
     27 H5           4.0080     0.0020     2.1470 ha         1 GA6       0.152000
     28 H6           1.5470    -0.0110    -2.1420 ha         1 GA6       0.146000
     29 H7           4.0090    -0.0090    -2.1440 ha         1 GA6       0.152000
     30 H8           5.3530     0.0360     3.1080 ha         1 GA6       0.104000
     31 H9           7.7760     0.0360     3.5360 ha         1 GA6       0.113000
     32 H3          -0.5000    -0.6520     0.5710 hn         1 GA6       0.458800
@<TRIPOS>BOND
     1     1     4 1
     2     1    20 1
     3     2    20 1
     4     3     7 1
     5     4     9 ar
     6     4    11 ar
     7     5     6 ar
     8     5    16 ar
     9     6     7 1
    10     6     8 ar
    11     7    17 1
    12     8    14 ar
    13     9    10 ar
    14    10    13 ar
    15    11    12 ar
    16    12    13 ar
    17    13    14 1
    18    14    15 ar
    19    15    16 ar
    20    18    20 2
    21    19    20 2
    22     1    32 1
    23     2    21 1
    24     2    22 1
    25     2    23 1
    26     5    24 1
    27     8    25 1
    28     9    26 1
    29    10    27 1
    30    11    28 1
    31    12    29 1
    32    15    30 1
    33    16    31 1
@<TRIPOS>SUBSTRUCTURE
     1 GA6         1 TEMP              0 ****  ****    0 ROOT
