@<TRIPOS>MOLECULE
molecule
   95    98     1     0     0
SMALL
bcc


@<TRIPOS>ATOM
      1 C40          0.0000     0.0000     0.0000 c3         1 GA8       0.125700
      2 O39          1.4290     0.0000     0.0000 os         1 GA8      -0.321900
      3 C2           2.0450     0.0000     1.2110 ca         1 GA8       0.194100
      4 C3           1.2910    -0.0050     2.3760 ca         1 GA8      -0.213500
      5 C4           1.9190    -0.0050     3.6060 ca         1 GA8       0.008500
      6 C5           3.3000     0.0010     3.6760 ca         1 GA8      -0.354500
      7 C6           4.0540     0.0060     2.5190 ca         1 GA8       0.008500
      8 C7           3.4300    -0.0000     1.2860 ca         1 GA8      -0.213500
      9 S8           4.1000     0.0000     5.2470 sy         1 GA8       1.422200
     10 O9           5.3300     0.6900     5.0710 o          1 GA8      -0.639800
     11 O10          3.1170     0.3920     6.1970 o          1 GA8      -0.639800
     12 N11          4.4910    -1.5700     5.5980 n3         1 GA8      -0.813500
     13 C12          3.5990    -2.3760     6.4360 c3         1 GA8       0.229800
     14 C13          3.0130    -3.5180     5.6040 c3         1 GA8      -0.096700
     15 C14          2.1490    -4.4100     6.4990 c3         1 GA8      -0.092100
     16 C15          2.1530    -2.9400     4.4780 c3         1 GA8      -0.092100
     17 C16          5.7270    -2.1530     5.0720 c3         1 GA8       0.236800
     18 C17          6.8370    -2.0260     6.1180 c3         1 GA8       0.108100
     19 O18          6.5050    -2.8150     7.2620 oh         1 GA8      -0.607800
     20 C19          8.1560    -2.5200     5.5230 c3         1 GA8       0.094700
     21 N20          9.2410    -2.2890     6.4810 ns         1 GA8      -0.580900
     22 C21         10.5100    -2.1580     6.0450 c          1 GA8       0.671700
     23 O22         10.7540    -2.2320     4.8570 o          1 GA8      -0.588100
     24 C23         11.6000    -1.9250     7.0090 ca         1 GA8      -0.155600
     25 C24         11.3220    -1.8400     8.3780 ca         1 GA8      -0.091000
     26 C25         12.3510    -1.6160     9.2580 ca         1 GA8      -0.125000
     27 C26         13.6670    -1.4760     8.8010 ca         1 GA8       0.079900
     28 C27         13.9480    -1.5720     7.4460 ca         1 GA8      -0.128300
     29 C28         12.9130    -1.7950     6.5630 ca         1 GA8      -0.052000
     30 S42         14.9230    -1.1780    10.0030 ss         1 GA8      -0.252000
     31 C43         16.4500    -1.4750     9.0650 c3         1 GA8       0.001700
     32 C44         16.3150    -0.7370     7.7260 c3         1 GA8      -0.105400
     33 C45         15.3220    -1.4800     6.8500 c3         1 GA8       0.183000
     34 N46         15.2270    -0.7920     5.5600 ns         1 GA8      -0.571900
     35 C47         16.1130    -1.0670     4.5830 c          1 GA8       0.755100
     36 O48         16.9900    -1.8870     4.7720 o          1 GA8      -0.622000
     37 O49         16.0260    -0.4360     3.3970 os         1 GA8      -0.432900
     38 C50         17.0140    -0.7820     2.3910 c3         1 GA8       0.178800
     39 C53         16.9120    -2.2750     2.0700 c3         1 GA8      -0.106433
     40 C51         16.7570     0.0320     1.1210 c3         1 GA8      -0.106433
     41 C52         18.4150    -0.4700     2.9230 c3         1 GA8      -0.106433
     42 C32          8.0530    -4.0160     5.2220 c3         1 GA8      -0.027100
     43 C33         10.7780    -4.9480     4.3800 ca         1 GA8      -0.125500
     44 C34         11.8820    -5.3430     3.6490 ca         1 GA8      -0.120500
     45 C35         11.8590    -5.2730     2.2680 ca         1 GA8      -0.145000
     46 C36         10.7310    -4.8080     1.6190 ca         1 GA8      -0.120500
     47 C37          9.6260    -4.4130     2.3500 ca         1 GA8      -0.125500
     48 C38          9.6500    -4.4820     3.7300 ca         1 GA8      -0.059300
     49 H1          -0.3610    -0.9000     0.4830 h1         1 GA8       0.046367
     50 H2          -0.3610     0.0320    -1.0210 h1         1 GA8       0.046367
     51 H3          -0.3610     0.8680     0.5380 h1         1 GA8       0.046367
     52 H4           0.2090    -0.0090     2.3200 ha         1 GA8       0.146500
     53 H5           1.3300    -0.0090     4.5150 ha         1 GA8       0.151500
     54 H6           5.1360     0.0090     2.5770 ha         1 GA8       0.151500
     55 H7           4.0220     0.0040     0.3790 ha         1 GA8       0.146500
     56 H8           4.1580    -2.7860     7.2680 h1         1 GA8       0.070700
     57 H9           2.7960    -1.7540     6.8110 h1         1 GA8       0.070700
     58 H10          3.8180    -4.1050     5.1790 hc         1 GA8       0.055700
     59 H11          2.7460    -4.7850     7.3210 hc         1 GA8       0.037033
     60 H12          1.3180    -3.8340     6.8890 hc         1 GA8       0.037033
     61 H13          1.7690    -5.2430     5.9190 hc         1 GA8       0.037033
     62 H14          2.7940    -2.4990     3.7240 hc         1 GA8       0.037033
     63 H15          1.4930    -2.1810     4.8810 hc         1 GA8       0.037033
     64 H16          1.5620    -3.7310     4.0320 hc         1 GA8       0.037033
     65 H17          5.5640    -3.1990     4.8430 h1         1 GA8       0.066200
     66 H18          6.0190    -1.6270     4.1710 h1         1 GA8       0.066200
     67 H19          6.9390    -0.9880     6.4120 h1         1 GA8       0.065700
     68 H20          6.6290    -2.3030     8.0440 ho         1 GA8       0.405000
     69 H21          8.3630    -1.9810     4.6060 h1         1 GA8       0.094700
     70 H22          9.0350    -2.2000     7.4560 hn         1 GA8       0.310500
     71 H23         10.2960    -1.7890     8.7200 ha         1 GA8       0.128000
     72 H24         12.1430    -1.5490    10.3190 ha         1 GA8       0.145000
     73 H25         13.1250    -1.8720     5.5030 ha         1 GA8       0.169000
     74 H26         16.5720    -2.5370     8.8880 h1         1 GA8       0.081700
     75 H27         17.2990    -1.0870     9.6140 h1         1 GA8       0.081700
     76 H28         15.9390     0.2620     7.9130 hc         1 GA8       0.072700
     77 H29         17.2790    -0.7270     7.2320 hc         1 GA8       0.072700
     78 H30         15.6930    -2.4840     6.6850 h1         1 GA8       0.094700
     79 H31         14.5380    -0.0790     5.4230 hn         1 GA8       0.331500
     80 H32         15.8700    -2.5650     2.0290 hc         1 GA8       0.050144
     81 H33         17.3790    -2.4710     1.1120 hc         1 GA8       0.050144
     82 H34         17.4160    -2.8450     2.8400 hc         1 GA8       0.050144
     83 H35         15.7650    -0.1880     0.7470 hc         1 GA8       0.050144
     84 H36         16.8320     1.0880     1.3490 hc         1 GA8       0.050144
     85 H37         17.4930    -0.2290     0.3700 hc         1 GA8       0.050144
     86 H38         19.0880    -0.3030     2.0910 hc         1 GA8       0.050144
     87 H39         18.7720    -1.3060     3.5130 hc         1 GA8       0.050144
     88 H40         18.3770     0.4180     3.5410 hc         1 GA8       0.050144
     89 H41          7.9340    -4.5640     6.1500 hc         1 GA8       0.057700
     90 H42          7.1970    -4.1980     4.5840 hc         1 GA8       0.057700
     91 H44         12.7660    -5.7080     4.1570 ha         1 GA8       0.126500
     92 H45         12.7240    -5.5830     1.6950 ha         1 GA8       0.125000
     93 H46         10.7130    -4.7530     0.5370 ha         1 GA8       0.126500
     94 H47          8.7420    -4.0480     1.8410 ha         1 GA8       0.125000
     95 H43         10.7960    -5.0030     5.4610 ha         1 GA8       0.125000
@<TRIPOS>BOND
     1    41    38 1
     2    39    38 1
     3    40    38 1
     4    38    37 1
     5    46    45 ar
     6    46    47 ar
     7    45    44 ar
     8    37    35 1
     9    44    43 ar
    10    47    48 ar
    11    36    35 2
    12     2     3 1
    13     2     1 1
    14     4     5 ar
    15     4     3 ar
    16    35    34 1
    17    43    48 ar
    18    48    42 1
    19     5     6 ar
    20     3     8 ar
    21    10     9 2
    22     8     7 ar
    23     6     7 ar
    24     6     9 1
    25    42    20 1
    26    34    33 1
    27     9    11 2
    28     9    12 1
    29    20    21 1
    30    20    18 1
    31    33    32 1
    32    33    28 1
    33    12    17 1
    34    12    13 1
    35    17    18 1
    36    32    31 1
    37    29    28 ar
    38    29    24 ar
    39    21    22 1
    40    18    19 1
    41    23    22 2
    42    22    24 1
    43    28    27 ar
    44    24    25 ar
    45    13    14 1
    46    31    30 1
    47    27    30 1
    48    27    26 ar
    49    15    14 1
    50    25    26 ar
    51    14    16 1
    52     1    49 1
    53     1    50 1
    54     1    51 1
    55     4    52 1
    56     5    53 1
    57     7    54 1
    58     8    55 1
    59    13    56 1
    60    13    57 1
    61    14    58 1
    62    15    59 1
    63    15    60 1
    64    15    61 1
    65    16    62 1
    66    16    63 1
    67    16    64 1
    68    17    65 1
    69    17    66 1
    70    18    67 1
    71    19    68 1
    72    20    69 1
    73    21    70 1
    74    25    71 1
    75    26    72 1
    76    29    73 1
    77    31    74 1
    78    31    75 1
    79    32    76 1
    80    32    77 1
    81    33    78 1
    82    34    79 1
    83    39    80 1
    84    39    81 1
    85    39    82 1
    86    40    83 1
    87    40    84 1
    88    40    85 1
    89    41    86 1
    90    41    87 1
    91    41    88 1
    92    42    89 1
    93    42    90 1
    94    43    95 1
    95    44    91 1
    96    45    92 1
    97    46    93 1
    98    47    94 1
@<TRIPOS>SUBSTRUCTURE
     1 GA8         1 TEMP              0 ****  ****    0 ROOT
