@<TRIPOS>MOLECULE
GA9
   44    48     1     0     0
SMALL
bcc


@<TRIPOS>ATOM
      1 C1          0.0430    0.2630   -0.0800 c         1 GA9      0.740200
      2 C2          1.4960    0.0800   -0.0530 ca        1 GA9     -0.160600
      3 C3          2.1830    0.0470    1.1420 ca        1 GA9     -0.036000
      4 C4          3.5930   -0.0220    1.1450 ca        1 GA9     -0.144000
      5 C5          4.2900   -0.0280   -0.0460 ca        1 GA9      0.063400
      6 C6          3.6100    0.0040   -1.3010 ca        1 GA9     -0.044000
      7 C7          4.2860    0.0280   -2.5510 ca        1 GA9     -0.094000
      8 C8          3.5740    0.0530   -3.7260 ca        1 GA9     -0.130000
      9 C9          2.1610    0.0200   -3.7140 ca        1 GA9     -0.089000
     10 C10         1.4700   -0.0200   -2.5210 ca        1 GA9     -0.113300
     11 C11         2.1920    0.0170   -1.2930 ca        1 GA9      0.014000
     12 C12        -0.0350   -0.1590   -2.4850 c3        1 GA9      0.335700
     13 C13        -0.4570   -1.6170   -2.5430 ca        1 GA9     -0.144300
     14 C14         0.3410   -2.5900   -3.1420 ca        1 GA9     -0.042500
     15 C15        -0.0740   -3.9260   -3.2000 ca        1 GA9     -0.123900
     16 C16        -1.3120   -4.2830   -2.6400 ca        1 GA9      0.168600
     17 C17        -2.1230   -3.3030   -2.0330 ca        1 GA9     -0.163000
     18 C18        -1.6960   -1.9860   -1.9910 ca        1 GA9     -0.061500
     19 C19        -0.6720    0.6320   -3.6120 ca        1 GA9     -0.144300
     20 C20        -0.9990    1.9760   -3.4220 ca        1 GA9     -0.042500
     21 C21        -1.5720    2.7270   -4.4540 ca        1 GA9     -0.123900
     22 C22        -1.8220    2.1100   -5.6920 ca        1 GA9      0.168600
     23 C23        -1.4980    0.7520   -5.8850 ca        1 GA9     -0.163000
     24 C24        -0.9310    0.0260   -4.8490 ca        1 GA9     -0.061500
     25 O1         -0.6140    0.4030   -1.2800 os        1 GA9     -0.419900
     26 O2         -0.7130    0.4050    0.8830 o         1 GA9     -0.571500
     27 O4         -2.3740    2.7380   -6.7780 oh        1 GA9     -0.487100
     28 O3         -1.8250   -5.5530   -2.6320 oh        1 GA9     -0.487100
     29 BR1         1.0470   -5.1830   -4.0220 br        1 GA9     -0.081600
     30 BR2        -1.9880    4.5270   -4.1410 br        1 GA9     -0.081600
     31 CL3         5.9890   -0.0750    0.0010 cl        1 GA9     -0.075400
     32 H3          1.6340    0.0890    2.0980 ha        1 GA9      0.166000
     33 H4          4.1220   -0.0580    2.1100 ha        1 GA9      0.159000
     34 H7          5.3870    0.0310   -2.5680 ha        1 GA9      0.151000
     35 H8          4.0950    0.0900   -4.6940 ha        1 GA9      0.144000
     36 H9          1.6180    0.0200   -4.6740 ha        1 GA9      0.150000
     37 H14         1.3160   -2.3100   -3.5760 ha        1 GA9      0.160000
     38 H17        -3.0890   -3.6040   -1.6000 ha        1 GA9      0.160500
     39 H18        -2.3260   -1.2160   -1.5120 ha        1 GA9      0.158000
     40 H20        -0.8100    2.4440   -2.4400 ha        1 GA9      0.160000
     41 H23        -1.7070    0.2890   -6.8610 ha        1 GA9      0.160500
     42 H24        -0.6890   -1.0390   -5.0010 ha        1 GA9      0.158000
     43 HO4        -2.5790    3.6560   -6.5350 ho        1 GA9      0.433500
     44 HO3        -1.1890   -6.1500   -3.0600 ho        1 GA9      0.433500
@<TRIPOS>BOND
     1    1    2 1   
     2    1   25 1   
     3    1   26 2   
     4    2    3 ar  
     5    2   11 ar  
     6    3    4 ar  
     7    3   32 1   
     8    4    5 ar  
     9    4   33 1   
    10    5    6 ar  
    11    5   31 1   
    12    6    7 ar  
    13    6   11 ar  
    14    7    8 ar  
    15    7   34 1   
    16    8    9 ar  
    17    8   35 1   
    18    9   10 ar  
    19    9   36 1   
    20   10   11 ar  
    21   10   12 1   
    22   12   13 1   
    23   12   19 1   
    24   12   25 1   
    25   13   14 ar  
    26   13   18 ar  
    27   14   15 ar  
    28   14   37 1   
    29   15   16 ar  
    30   15   29 1   
    31   16   17 ar  
    32   16   28 1   
    33   17   18 ar  
    34   17   38 1   
    35   18   39 1   
    36   19   20 ar  
    37   19   24 ar  
    38   20   21 ar  
    39   20   40 1   
    40   21   22 ar  
    41   21   30 1   
    42   22   23 ar  
    43   22   27 1   
    44   23   24 ar  
    45   23   41 1   
    46   24   42 1   
    47   27   43 1   
    48   28   44 1   
@<TRIPOS>SUBSTRUCTURE
     1 GA9         1 TEMP              0 ****  ****    0 ROOT
