@<TRIPOS>MOLECULE
GAA
   36    37     1     0     0
SMALL
bcc


@<TRIPOS>ATOM
      1 C1         -0.1020    0.2040    0.3070 c3        1 GAA      0.309900
      2 C2          1.3940   -0.1530    0.3820 c3        1 GAA      0.091100
      3 C3          1.9100   -0.0170    1.8210 c3        1 GAA      0.076100
      4 C4          1.5720    1.3780    2.3710 c3        1 GAA      0.127100
      5 C5          0.0650    1.6230    2.2430 c3        1 GAA      0.105100
      6 C6         -0.2940    3.0710    2.5940 c3        1 GAA      0.141400
      7 C7         -2.1190   -1.0240    0.6910 ca        1 GAA      0.109100
      8 C8         -2.5690   -2.3450    0.8410 ca        1 GAA     -0.092000
      9 C9         -3.9160   -2.6180    0.5680 ca        1 GAA     -0.152200
     10 C10        -4.7970   -1.6080    0.1470 ca        1 GAA     -0.090000
     11 C11        -4.3170   -0.3070    0.0060 ca        1 GAA     -0.112000
     12 C12        -2.9850   -0.0030    0.2790 ca        1 GAA     -0.136000
     13 N1         -4.4200   -4.0100    0.7260 no        1 GAA      0.312200
     14 O1         -0.7970   -0.8060    1.0420 os        1 GAA     -0.374900
     15 O2          1.6430   -1.4460   -0.1220 oh        1 GAA     -0.586800
     16 O3          3.3220   -0.1380    1.8650 oh        1 GAA     -0.603800
     17 O4          2.2580    2.3910    1.6560 oh        1 GAA     -0.594800
     18 O5         -0.4200    1.4320    0.9070 os        1 GAA     -0.432600
     19 O6         -1.6920    3.2630    2.5850 oh        1 GAA     -0.594800
     20 O7         -5.5750   -4.2390    0.4910 o         1 GAA     -0.204000
     21 O8         -3.6560   -4.8670    1.0820 o         1 GAA     -0.204000
     22 H1         -0.4640    0.2830   -0.7560 h2        1 GAA      0.102700
     23 H2          1.9650    0.5460   -0.2950 h1        1 GAA      0.115700
     24 H3          1.4420   -0.8100    2.4700 h1        1 GAA      0.062700
     25 H4          1.8650    1.4270    3.4580 h1        1 GAA      0.062700
     26 H5         -0.4770    0.9010    2.9170 h1        1 GAA      0.072700
     27 H61         0.2130    3.7690    1.8770 h1        1 GAA      0.068700
     28 H62         0.0290    3.2910    3.6450 h1        1 GAA      0.068700
     29 H8         -1.8770   -3.1360    1.1740 ha        1 GAA      0.181000
     30 H10        -5.8530   -1.8430   -0.0650 ha        1 GAA      0.174000
     31 H11        -5.0030    0.4910   -0.3180 ha        1 GAA      0.153000
     32 H12        -2.6120    1.0300    0.1850 ha        1 GAA      0.165000
     33 HO2         1.0920   -2.0650    0.3770 ho        1 GAA      0.418000
     34 HO3         3.5550   -0.8980    1.3130 ho        1 GAA      0.427000
     35 HO4         3.1950    2.1490    1.6680 ho        1 GAA      0.426000
     36 HO6        -1.9940    3.0910    1.6840 ho        1 GAA      0.407000
@<TRIPOS>BOND
     1    1    2 1
     2    1   14 1
     3    1   18 1
     4    1   22 1
     5    2    3 1
     6    2   15 1
     7    2   23 1
     8    3    4 1
     9    3   16 1
    10    3   24 1
    11    4    5 1
    12    4   17 1
    13    4   25 1
    14    5    6 1
    15    5   18 1
    16    5   26 1
    17    6   19 1
    18    6   27 1
    19    6   28 1
    20    7    8 ar
    21    7   12 ar
    22    7   14 1
    23    8    9 ar
    24    8   29 1
    25    9   10 ar
    26    9   13 1
    27   10   11 ar
    28   10   30 1
    29   11   12 ar
    30   11   31 1
    31   12   32 1
    32   13   20 1
    33   13   21 1
    34   15   33 1
    35   16   34 1
    36   17   35 1
    37   19   36 1
@<TRIPOS>SUBSTRUCTURE
     1 GAA         1 TEMP              0 ****  ****    0 ROOT
