@<TRIPOS>MOLECULE
GAB
   16    16     1     0     0
SMALL
bcc


@<TRIPOS>ATOM
      1 C1'          0.0000     0.0000     0.0000 c          1 GAB       0.975200
      2 O1'          1.2150     0.0000     0.0000 o          1 GAB      -0.887800
      3 O2'         -0.6720     0.0000     1.1670 o          1 GAB      -0.887800
      4 C1          -0.7390     0.0000    -1.2790 ca         1 GAB      -0.102600
      5 C2          -0.0450    -0.0040    -2.4880 ca         1 GAB      -0.086000
      6 C3          -0.7450     0.0000    -3.6840 ca         1 GAB      -0.020400
      7 C4          -2.1350     0.0000    -3.6750 ca         1 GAB      -0.143000
      8 C5          -2.8230     0.0000    -2.4770 ca         1 GAB      -0.144000
      9 C6          -2.1350    -0.0000    -1.2810 ca         1 GAB      -0.068000
     10 N3          -0.0550     0.0010    -4.8980 nv         1 GAB      -0.559200
     11 H2           1.0390    -0.0040    -2.4920 ha         1 GAB       0.123000
     12 H4          -2.6800     0.0020    -4.6110 ha         1 GAB       0.084000
     13 H5          -3.9060     0.0000    -2.4770 ha         1 GAB       0.081000
     14 H6          -2.6780    -0.0000    -0.3440 ha         1 GAB       0.126000
     15 HN31         0.1980     0.8680    -5.3300 hn         1 GAB       0.254800
     16 HN32         0.1970    -0.8650    -5.3320 hn         1 GAB       0.254800
@<TRIPOS>BOND
     1     1     2 1   
     2     1     3 1   
     3     1     4 1   
     4     4     5 ar  
     5     4     9 ar  
     6     5     6 ar  
     7     5    11 1   
     8     6     7 ar  
     9     6    10 1   
    10     7     8 ar  
    11     7    12 1   
    12     8     9 ar  
    13     8    13 1   
    14     9    14 1   
    15    10    15 1   
    16    10    16 1   
@<TRIPOS>SUBSTRUCTURE
     1 GAB         1 TEMP              0 ****  ****    0 ROOT
