@<TRIPOS>MOLECULE
GAE
   22    21     1     0     0
SMALL
bcc


@<TRIPOS>ATOM
      1 O6A        -0.0980    0.6140    0.0620 o         1 GAE     -0.856800
      2 C6          1.0600    0.1170    0.0890 c         1 GAE      0.886600
      3 O6B         1.6390   -0.3840   -0.9280 o         1 GAE     -0.856800
      4 C5          1.8680    0.1100    1.4090 c3        1 GAE     -0.005900
      5 O5          3.1820    0.5900    1.1570 oh        1 GAE     -0.622800
      6 C4          1.9210   -1.3150    1.9890 c3        1 GAE      0.134100
      7 O4          2.6900   -2.1710    1.1480 oh        1 GAE     -0.639800
      8 C3          2.5820   -1.3550    3.3800 c3        1 GAE      0.134100
      9 O3          1.8140   -0.4980    4.2210 oh        1 GAE     -0.639800
     10 C2          2.6350   -2.7790    3.9600 c3        1 GAE     -0.005900
     11 C1          3.4430   -2.7870    5.2800 c         1 GAE      0.886600
     12 O1A         2.8650   -2.2850    6.2960 o         1 GAE     -0.856800
     13 O1B         4.6010   -3.2840    5.3070 o         1 GAE     -0.856800
     14 O2          1.3210   -3.2590    4.2120 oh        1 GAE     -0.622800
     15 H5          1.4320    0.8110    2.1670 h1        1 GAE      0.081700
     16 HO5         3.4870    0.1140    0.3710 ho        1 GAE      0.403000
     17 H4          0.8750   -1.7200    2.0690 h1        1 GAE      0.047700
     18 HO4         2.4400   -1.9490    0.2360 ho        1 GAE      0.428000
     19 H3          3.6280   -0.9490    3.3000 h1        1 GAE      0.047700
     20 HO3         2.0640   -0.7200    5.1330 ho        1 GAE      0.428000
     21 H2          3.0710   -3.4810    3.2020 h1        1 GAE      0.081700
     22 HO2         1.0160   -2.7830    4.9970 ho        1 GAE      0.403000
@<TRIPOS>BOND
     1    1    2 1   
     2    2    3 1   
     3    2    4 1   
     4    4    5 1   
     5    4    6 1   
     6    4   15 1   
     7    5   16 1   
     8    6    7 1   
     9    6    8 1   
    10    6   17 1   
    11    7   18 1   
    12    8    9 1   
    13    8   10 1   
    14    8   19 1   
    15    9   20 1   
    16   10   11 1   
    17   10   14 1   
    18   10   21 1   
    19   11   12 1   
    20   11   13 1   
    21   14   22 1   
@<TRIPOS>SUBSTRUCTURE
     1 GAE         1 TEMP              0 ****  ****    0 ROOT
