@<TRIPOS>MOLECULE
molecule
   22    21     1     0     0
SMALL
bcc


@<TRIPOS>ATOM
      1 O6A          0.0000     0.0000     0.0000 o          1 GAE      -0.861300
      2 C6           1.3430     0.0000     0.0000 c          1 GAE       0.873100
      3 O6B          1.9470     0.0000    -1.0460 o          1 GAE      -0.861300
      4 C5           2.0950     0.0000     1.3060 c3         1 GAE       0.025100
      5 O5           3.4960     0.1180     1.0480 oh         1 GAE      -0.601800
      6 C4           1.8220    -1.3070     2.0520 c3         1 GAE       0.166600
      7 O4           2.1450    -2.4140     1.2080 oh         1 GAE      -0.601300
      8 C3           2.6810    -1.3620     3.3160 c3         1 GAE       0.166600
      9 O3           2.3590    -0.2550     4.1610 oh         1 GAE      -0.601300
     10 C2           2.4080    -2.6690     4.0630 c3         1 GAE       0.025100
     11 C1           3.1610    -2.6690     5.3690 c          1 GAE       0.873100
     12 O1A          2.5560    -2.6700     6.4140 o          1 GAE      -0.861300
     13 O1B          4.5030    -2.6690     5.3690 o          1 GAE      -0.861300
     14 O2           1.0080    -2.7870     4.3210 oh         1 GAE      -0.601800
     15 H5           1.7680     0.8370     1.9110 h1         1 GAE       0.029200
     16 HO5          3.7040     1.0150     0.8500 ho         1 GAE       0.371000
     17 H4           0.7750    -1.3550     2.3250 h1         1 GAE       0.070700
     18 HO4          1.3510    -2.8420     0.9340 ho         1 GAE       0.390000
     19 H3           3.7290    -1.3150     3.0430 h1         1 GAE       0.070700
     20 HO3          3.1530     0.1730     4.4350 ho         1 GAE       0.390000
     21 H2           2.7350    -3.5060     3.4580 h1         1 GAE       0.029200
     22 HO2          0.7990    -3.6850     4.5190 ho         1 GAE       0.371000
@<TRIPOS>BOND
     1     2     1 1
     2     3     2 1
     3     2     4 1
     4     6     4 1
     5     5     4 1
     6     4    15 1
     7     5    16 1
     8     7     6 1
     9     6     8 1
    10     6    17 1
    11     7    18 1
    12     9     8 1
    13    10     8 1
    14     8    19 1
    15     9    20 1
    16    14    10 1
    17    10    11 1
    18    10    21 1
    19    12    11 1
    20    11    13 1
    21    14    22 1
@<TRIPOS>SUBSTRUCTURE
     1 GAE         1 TEMP              0 ****  ****    0 ROOT
