@<TRIPOS>MOLECULE
molecule
   23    23     1     0     0
SMALL
bcc


@<TRIPOS>ATOM
      1 C1           0.0000     0.0000     0.0000 c3         1 GAF       0.303900
      2 C2           1.5310     0.0000     0.0000 c3         1 GAF       0.140600
      3 F2           1.9980    -1.1420    -0.6600 f          1 GAF      -0.239300
      4 C3           2.0310     0.0000     1.4470 c3         1 GAF       0.114100
      5 O3           3.4520     0.1490     1.4650 oh         1 GAF      -0.590800
      6 C4           1.3790     1.1710     2.1890 c3         1 GAF       0.108100
      7 O4           1.8510     2.4040     1.6450 oh         1 GAF      -0.581800
      8 C5          -0.1400     1.0810     2.0260 c3         1 GAF       0.129100
      9 O5          -0.4810     1.1760     0.6460 os         1 GAF      -0.371600
     10 C6          -0.8030     2.2260     2.7940 c3         1 GAF       0.147400
     11 O6          -2.2200     2.1430     2.6450 oh         1 GAF      -0.597800
     12 O1          -0.4730    -1.1530     0.6980 oh         1 GAF      -0.626800
     13 H1C1        -0.3580    -0.0200    -1.0220 h2         1 GAF       0.079700
     14 H2           1.8900     0.8880    -0.5050 h1         1 GAF       0.100700
     15 H3           1.7520    -0.9310     1.9260 h1         1 GAF       0.063700
     16 HA           3.8380    -0.5770     1.9250 ho         1 GAF       0.406000
     17 H4           1.6310     1.1150     3.2410 h1         1 GAF       0.042700
     18 HB           2.3650     2.8570     2.2930 ho         1 GAF       0.405000
     19 H5          -0.4870     0.1320     2.4160 h1         1 GAF       0.080700
     20 H6C1        -0.4540     3.1740     2.4020 h1         1 GAF       0.032200
     21 H6C2        -0.5460     2.1530     3.8440 h1         1 GAF       0.032200
     22 H6          -2.6340     2.7750     3.2100 ho         1 GAF       0.402000
     23 H1          -1.1220    -1.5930     0.1750 ho         1 GAF       0.421000
@<TRIPOS>BOND
     1     1     2 1
     2     1     9 1
     3     1    12 1
     4     1    13 1
     5     2     3 1
     6     2     4 1
     7     2    14 1
     8     4     5 1
     9     4     6 1
    10     4    15 1
    11     5    16 1
    12     6     7 1
    13     6     8 1
    14     6    17 1
    15     7    18 1
    16     8     9 1
    17     8    10 1
    18     8    19 1
    19    10    11 1
    20    10    20 1
    21    10    21 1
    22    11    22 1
    23    12    23 1
@<TRIPOS>SUBSTRUCTURE
     1 GAF         1 TEMP              0 ****  ****    0 ROOT
