@<TRIPOS>MOLECULE
GAF
   23    23     1     0     0
SMALL
bcc


@<TRIPOS>ATOM
      1 C1          0.0050    0.0180    0.0550 c3        1 GAF      0.314900
      2 C2          1.5510    0.0600    0.0960 c3        1 GAF      0.121600
      3 F2          2.1080   -0.9530   -0.6600 f         1 GAF     -0.228300
      4 C3          2.0170   -0.0210    1.5670 c3        1 GAF      0.080100
      5 O3          3.4190    0.1600    1.6610 oh        1 GAF     -0.604800
      6 C4          1.3740    1.1260    2.3640 c3        1 GAF      0.128100
      7 O4          1.8260    2.3880    1.9050 oh        1 GAF     -0.594800
      8 C5         -0.1510    1.0670    2.2100 c3        1 GAF      0.106100
      9 O5         -0.5740    1.0380    0.8430 os        1 GAF     -0.447600
     10 C6         -0.8180    2.3070    2.8140 c3        1 GAF      0.142400
     11 O6         -2.2240    2.1920    2.7800 oh        1 GAF     -0.598800
     12 O1         -0.4310   -1.2040    0.5950 oh        1 GAF     -0.617800
     13 H1C1       -0.3830    0.1950   -0.9870 h2        1 GAF      0.086700
     14 H2          1.8760    1.0540   -0.3310 h1        1 GAF      0.090700
     15 H3          1.7190   -1.0150    2.0010 h1        1 GAF      0.077700
     16 HA          3.8250   -0.5190    1.1060 ho        1 GAF      0.424000
     17 H4          1.6410    1.0090    3.4520 h1        1 GAF      0.060700
     18 HB          2.7930    2.3590    1.9250 ho        1 GAF      0.424000
     19 H5         -0.5230    0.1290    2.7110 h1        1 GAF      0.068700
     20 H6C1       -0.5520    2.3830    3.9010 h1        1 GAF      0.066700
     21 H6C2       -0.4760    3.2240    2.2650 h1        1 GAF      0.066700
     22 H6         -2.4800    2.1480    1.8500 ho        1 GAF      0.411000
     23 H1         -1.3960   -1.2120    0.5500 ho        1 GAF      0.423000
@<TRIPOS>BOND
     1    1    2 1   
     2    1    9 1   
     3    1   12 1   
     4    1   13 1   
     5    2    3 1   
     6    2    4 1   
     7    2   14 1   
     8    4    5 1   
     9    4    6 1   
    10    4   15 1   
    11    5   16 1   
    12    6    7 1   
    13    6    8 1   
    14    6   17 1   
    15    7   18 1   
    16    8    9 1   
    17    8   10 1   
    18    8   19 1   
    19   10   11 1   
    20   10   20 1   
    21   10   21 1   
    22   11   22 1   
    23   12   23 1   
@<TRIPOS>SUBSTRUCTURE
     1 GAF         1 TEMP              0 ****  ****    0 ROOT
