@<TRIPOS>MOLECULE
GAG
   11    11     1     0     0
SMALL
bcc


@<TRIPOS>ATOM
      1 O20         0.0100   -0.0810    0.0470 oh        1 GAG     -0.550300
      2 C2          1.3700   -0.0270   -0.0030 cc        1 GAG      0.542600
      3 C1          2.2260    0.0130    1.1950 cc        1 GAG     -0.314200
      4 COO         1.8700    0.0090    2.6590 c         1 GAG      0.936200
      5 O12         2.8440    0.0260    3.4680 o         1 GAG     -0.818800
      6 O11         0.6590   -0.0100    2.9980 o         1 GAG     -0.818800
      7 C5          3.4920    0.0600    0.6540 cd        1 GAG      0.247600
      8 O4          3.4030    0.0490   -0.7590 os        1 GAG     -0.166100
      9 N3          2.1320   -0.0040   -1.1300 nd        1 GAG     -0.516300
     10 H20        -0.3240   -0.0970   -0.8650 ho        1 GAG      0.403000
     11 H5          4.4940    0.1000    1.0620 h4        1 GAG      0.056100
@<TRIPOS>BOND
     1    1    2 1
     2    1   10 1
     3    2    3 1
     4    2    9 2
     5    3    4 1
     6    3    7 2
     7    4    5 1
     8    4    6 1
     9    7    8 1
    10    7   11 1
    11    8    9 1
@<TRIPOS>SUBSTRUCTURE
     1 GAG         1 TEMP              0 ****  ****    0 ROOT
