@<TRIPOS>MOLECULE
GAI
   11    10     1     0     0
SMALL
bcc


@<TRIPOS>ATOM
      1 C            0.0000     0.0000     0.0000 c2         1 GAI      -0.070900
      2 N1           1.3030     0.0000     0.0000 n2         1 GAI      -0.199100
      3 N2          -0.6850     0.0000     1.1920 nz         1 GAI       0.174900
      4 N3          -0.6880     0.0000    -1.1890 nz         1 GAI       0.174900
      5 HN1          1.8050     0.0000     0.8660 hn         1 GAI       0.392400
      6 HN21        -0.4430     0.8170     1.7160 hn         1 GAI       0.254467
      7 HN22        -0.4420    -0.8170     1.7170 hn         1 GAI       0.254467
      8 HN31        -0.0380     0.0010    -1.9500 hn         1 GAI       0.254467
      9 HN32        -1.2640     0.8170    -1.2410 hn         1 GAI       0.254467
     10 H23         -1.6690     0.0360     1.0120 hn         1 GAI       0.254467
     11 H33         -1.2760    -0.8090    -1.2340 hn         1 GAI       0.254467
@<TRIPOS>BOND
     1     1     2 2   
     2     1     3 1   
     3     1     4 1   
     4     2     5 1   
     5     3     6 1   
     6     3     7 1   
     7     3    10 1   
     8     4     8 1   
     9     4     9 1   
    10     4    11 1   
@<TRIPOS>SUBSTRUCTURE
     1 GAI         1 TEMP              0 ****  ****    0 ROOT
