@<TRIPOS>MOLECULE
molecule
   11    10     1     0     0
SMALL
bcc


@<TRIPOS>ATOM
      1 C            0.0000     0.0000     0.0000 c2         1 GAI       0.505100
      2 N1           1.3030     0.0000     0.0000 n2         1 GAI      -0.528100
      3 N2          -0.6850     0.0000     1.1920 nz         1 GAI      -0.778600
      4 N3          -0.6880     0.0000    -1.1890 nz         1 GAI      -0.778600
      5 HN1          1.8050    -0.0000    -0.8660 hn         1 GAI       0.524400
      6 HN21        -1.2610    -0.8170     1.2460 hn         1 GAI       0.509467
      7 HN22        -1.2610     0.8170     1.2460 hn         1 GAI       0.509467
      8 HN31        -1.6720     0.0000    -1.0050 hn         1 GAI       0.509467
      9 HN32        -0.4460     0.8170    -1.7140 hn         1 GAI       0.509467
     10 H23         -0.0350    -0.0580     1.9510 hn         1 GAI       0.509467
     11 H33         -0.4070    -0.7890    -1.7370 hn         1 GAI       0.509467
@<TRIPOS>BOND
     1     1     2 2
     2     1     3 1
     3     1     4 1
     4     2     5 1
     5     3     6 1
     6     3     7 1
     7     4     8 1
     8     4     9 1
     9    10     3 1
    10    11     4 1
@<TRIPOS>SUBSTRUCTURE
     1 GAI         1 TEMP              0 ****  ****    0 ROOT
