@<TRIPOS>MOLECULE
GAJ
   33    36     1     0     0
SMALL
bcc


@<TRIPOS>ATOM
      1 O2         -0.3480    0.6610    0.8270 o         1 GAJ     -0.667300
      2 S           1.0540    0.5510    0.7890 sy        1 GAJ      1.697700
      3 O1          1.7230    0.8720    1.9810 o         1 GAJ     -0.667300
      4 N4          1.4840   -0.8480    0.2840 ne        1 GAJ     -1.055300
      5 C14         1.8040   -1.9830   -0.1640 cd        1 GAJ      1.039100
      6 N           3.1050   -2.6040   -0.2790 na        1 GAJ     -0.564300
      7 N1          2.9620   -3.8480   -0.7880 n2        1 GAJ     -0.069700
      8 N2          1.7570   -4.0670   -1.0960 n2        1 GAJ     -0.069700
      9 N3          0.9920   -2.9860   -0.8190 na        1 GAJ     -0.564300
     10 C1          1.6220    1.5830   -0.4390 ca        1 GAJ     -0.404500
     11 C           2.9570    1.9790   -0.4820 ca        1 GAJ      0.070000
     12 C2          0.7340    2.0800   -1.4090 ca        1 GAJ      0.025000
     13 C3          1.1590    2.9460   -2.4020 ca        1 GAJ     -0.188000
     14 C4          2.5160    3.3260   -2.4330 ca        1 GAJ      0.210100
     15 O7          2.8590    4.1870   -3.4540 os        1 GAJ     -0.218200
     16 C6          4.1810    4.6100   -3.5070 ca        1 GAJ      0.145100
     17 C8          4.4730    5.5100   -4.5470 ca        1 GAJ     -0.156000
     18 C9          5.7740    5.9820   -4.6730 ca        1 GAJ     -0.075000
     19 C10         6.7720    5.5690   -3.7840 ca        1 GAJ     -0.163000
     20 C11         6.4740    4.6790   -2.7590 ca        1 GAJ     -0.045000
     21 C12         5.1690    4.1840   -2.6060 ca        1 GAJ     -0.214600
     22 C13         4.8420    3.2410   -1.5270 c         1 GAJ      0.604300
     23 C5          3.4270    2.8450   -1.4780 ca        1 GAJ     -0.251600
     24 O           5.6870    2.8100   -0.7300 o         1 GAJ     -0.536100
     25 H           3.9010   -2.3800    0.2790 hn        1 GAJ      0.503300
     26 H3          0.0060   -3.0850   -0.7160 hn        1 GAJ      0.503300
     27 HA          3.6710    1.6250    0.2870 ha        1 GAJ      0.173000
     28 H2         -0.3310    1.7820   -1.3620 ha        1 GAJ      0.167000
     29 HB          0.4660    3.3420   -3.1580 ha        1 GAJ      0.163000
     30 H8          3.6760    5.8240   -5.2360 ha        1 GAJ      0.158000
     31 H9          6.0190    6.6880   -5.4820 ha        1 GAJ      0.143000
     32 H10         7.7970    5.9530   -3.8970 ha        1 GAJ      0.144000
     33 H11         7.2500    4.3440   -2.0510 ha        1 GAJ      0.162000
@<TRIPOS>BOND
     1    1    2 2   
     2    2    3 2   
     3    2    4 1   
     4    2   10 1   
     5    4    5 2   
     6    5    6 1   
     7    5    9 1   
     8    6    7 1   
     9    6   25 1   
    10    7    8 2   
    11    8    9 1   
    12    9   26 1   
    13   10   11 ar  
    14   10   12 ar  
    15   11   23 ar  
    16   11   27 1   
    17   12   13 ar  
    18   12   28 1   
    19   13   14 ar  
    20   13   29 1   
    21   14   15 1   
    22   14   23 ar  
    23   15   16 1   
    24   16   17 ar  
    25   16   21 ar  
    26   17   18 ar  
    27   17   30 1   
    28   18   19 ar  
    29   18   31 1   
    30   19   20 ar  
    31   19   32 1   
    32   20   21 ar  
    33   20   33 1   
    34   21   22 1   
    35   22   23 1   
    36   22   24 2   
@<TRIPOS>SUBSTRUCTURE
     1 GAJ         1 TEMP              0 ****  ****    0 ROOT
