@<TRIPOS>MOLECULE
GAM
   20    19     1     0     0
SMALL
bcc


@<TRIPOS>ATOM
      1 CB2         1.6070    0.0720   -0.0590 c3        1 GAM     -0.049100
      2 CB1        -0.4410    0.0320    1.3880 c3        1 GAM     -0.058400
      3 CG          0.0110    1.2210    2.2040 c3        1 GAM     -0.178400
      4 CD         -0.7380    1.3650    3.5340 c         1 GAM      0.902600
      5 OE1        -0.0620    1.3600    4.6110 o         1 GAM     -0.878300
      6 OE2        -1.9940    1.5390    3.5310 o         1 GAM     -0.878300
      7 C          -0.3190   -1.3700   -0.6900 c         1 GAM      0.898600
      8 O           0.2530   -2.4080   -0.2500 o         1 GAM     -0.862800
      9 OXT        -1.1780   -1.4070   -1.6240 o         1 GAM     -0.862800
     10 CA          0.0730    0.0260   -0.0700 c3        1 GAM      0.044200
     11 N          -0.4520    1.1500   -0.8600 n3        1 GAM     -0.908800
     12 H21         1.9800    1.0280    0.3800 hc        1 GAM      0.012700
     13 H22         2.0080   -0.0270   -1.0950 hc        1 GAM      0.012700
     14 H23         1.9790   -0.7860    0.5510 hc        1 GAM      0.012700
     15 H11        -0.0790   -0.9140    1.8700 hc        1 GAM      0.046200
     16 H12        -1.5620   -0.0030    1.3850 hc        1 GAM      0.046200
     17 HG1        -0.1500    2.1710    1.6320 hc        1 GAM      0.016200
     18 HG2         1.1070    1.1370    2.4180 hc        1 GAM      0.016200
     19 HN1        -0.8530    0.7770   -1.7040 hn        1 GAM      0.334300
     20 HN2        -1.1960    1.5860   -0.3460 hn        1 GAM      0.334300
@<TRIPOS>BOND
     1    1   10 1
     2    1   12 1
     3    1   13 1
     4    1   14 1
     5    2    3 1
     6    2   10 1
     7    2   15 1
     8    2   16 1
     9    3    4 1
    10    3   17 1
    11    3   18 1
    12    4    5 1
    13    4    6 1
    14    7    8 1
    15    7    9 1
    16    7   10 1
    17   10   11 1
    18   11   19 1
    19   11   20 1
@<TRIPOS>SUBSTRUCTURE
     1 GAM         1 TEMP              0 ****  ****    0 ROOT
