@<TRIPOS>MOLECULE
GAP
   44    46     1     0     0
SMALL
bcc


@<TRIPOS>ATOM
      1 N            0.0000     0.0000     0.0000 nz         1 GAP       0.103400
      2 CA           1.4690     0.0000     0.0000 c3         1 GAP      -0.147200
      3 C            1.9710     0.0000     1.4210 c          1 GAP       0.767100
      4 O            1.1850    -0.0000     2.3400 o          1 GAP      -0.564000
      5 PA           3.8260    -0.0010     3.1860 p5         1 GAP       0.897800
      6 O1A          3.4180    -1.3210     3.8750 o          1 GAP      -0.620000
      7 O2A          3.2110     1.1920     3.9500 o          1 GAP      -0.620000
      8 O3A          3.2900    -0.0010     1.6670 os         1 GAP      -0.415500
      9 C5'          5.8340     0.2430     4.5550 c3         1 GAP       0.251400
     10 O5'          5.4320     0.1300     3.1880 os         1 GAP      -0.455200
     11 C4'          7.3570     0.3730     4.6280 c3         1 GAP       0.152100
     12 O4'          7.7850     1.6210     4.0410 os         1 GAP      -0.385600
     13 C3'          7.8220     0.4480     6.0990 c3         1 GAP       0.132100
     14 O3'          8.2680    -0.8320     6.5500 oh         1 GAP      -0.553800
     15 C2'          8.9970     1.4530     6.0720 c3         1 GAP       0.123100
     16 O2'         10.2040     0.8250     6.5060 oh         1 GAP      -0.543800
     17 C1'          9.0990     1.8670     4.5860 c3         1 GAP       0.140800
     18 N9           9.4400     3.2870     4.4740 na         1 GAP       0.214000
     19 C8           8.5600     4.3200     4.3440 cc         1 GAP       0.260700
     20 N7           9.2050     5.4480     4.2720 nd         1 GAP      -0.512100
     21 C5          10.5360     5.2120     4.3560 ca         1 GAP      -0.244200
     22 C6          11.6870     6.0190     4.3260 ca         1 GAP       0.589200
     23 N6          11.5850     7.3930     4.2000 nv         1 GAP      -0.488500
     24 N1          12.8750     5.4310     4.4290 nb         1 GAP      -0.750000
     25 C2          12.9810     4.1200     4.5510 ca         1 GAP       0.682900
     26 N3          11.9320     3.3250     4.5770 nb         1 GAP      -0.670000
     27 C4          10.7030     3.8220     4.4810 ca         1 GAP       0.267800
     28 H1          -0.3340    -0.8140     0.4770 hn         1 GAP       0.219467
     29 H2A         -0.3340     0.8200     0.4660 hn         1 GAP       0.219467
     30 H3          -0.3340    -0.0060    -0.9440 hn         1 GAP       0.219467
     31 HA1          1.8300    -0.8850    -0.5110 hx         1 GAP       0.088700
     32 HA2          1.8300     0.8850    -0.5110 hx         1 GAP       0.088700
     33 H5'1         5.5200    -0.6400     5.0980 h1         1 GAP       0.021700
     34 H5'2         5.3750     1.1200     4.9950 h1         1 GAP       0.021700
     35 H4'          7.8360    -0.4600     4.1270 h1         1 GAP       0.043700
     36 H3'          7.0220     0.8210     6.7280 h1         1 GAP       0.018700
     37 HO'3         7.8320    -1.0500     7.3580 ho         1 GAP       0.387000
     38 H2'          8.7700     2.3150     6.6870 h1         1 GAP       0.014700
     39 HO'2        10.4070     1.1060     7.3830 ho         1 GAP       0.388000
     40 H1'          9.8350     1.2570     4.0780 h2         1 GAP       0.066700
     41 H8           7.4820     4.2180     4.3070 h5         1 GAP       0.047800
     42 H61         10.6840     7.8240     4.1330 hn         1 GAP       0.274800
     43 H62         12.4120     7.9560     4.1760 hn         1 GAP       0.274800
     44 H2          13.9690     3.6830     4.6320 h5         1 GAP      -0.006900
@<TRIPOS>BOND
     1     1     2 1   
     2     1    28 1   
     3     1    29 1   
     4     1    30 1   
     5     2     3 1   
     6     2    31 1   
     7     2    32 1   
     8     3     4 2   
     9     3     8 1   
    10     5     6 1   
    11     5     7 1   
    12     5     8 1   
    13     5    10 1   
    14     9    10 1   
    15     9    11 1   
    16     9    33 1   
    17     9    34 1   
    18    11    12 1   
    19    11    13 1   
    20    11    35 1   
    21    12    17 1   
    22    13    14 1   
    23    13    15 1   
    24    13    36 1   
    25    14    37 1   
    26    15    16 1   
    27    15    17 1   
    28    15    38 1   
    29    16    39 1   
    30    17    18 1   
    31    17    40 1   
    32    18    19 1   
    33    18    27 1   
    34    19    20 2   
    35    19    41 1   
    36    20    21 1   
    37    21    22 ar  
    38    21    27 ar  
    39    22    23 1   
    40    22    24 ar  
    41    23    42 1   
    42    23    43 1   
    43    24    25 ar  
    44    25    26 ar  
    45    25    44 1   
    46    26    27 ar  
@<TRIPOS>SUBSTRUCTURE
     1 GAP         1 TEMP              0 ****  ****    0 ROOT
