@<TRIPOS>MOLECULE
GAQ
   17    16     1     0     0
SMALL
bcc


@<TRIPOS>ATOM
      1 O5         -0.0120    0.0650    0.0330 o         1 GAQ     -0.525100
      2 C5          1.2180    0.0120    0.0270 c         1 GAQ      0.562900
      3 C4          2.0680   -0.0090    1.2580 c3        1 GAQ     -0.198400
      4 C3          1.2630    0.0460    2.5370 c3        1 GAQ     -0.075400
      5 C2          2.1650    0.0210    3.7490 c3        1 GAQ     -0.084400
      6 C1          1.3420    0.0770    5.0250 c3        1 GAQ      0.132400
      7 O1          2.2570    0.0490    6.1090 oh        1 GAQ     -0.602800
      8 H55         1.7900   -0.0250   -0.9290 h4        1 GAQ     -0.008800
      9 H41         2.6930   -0.9430    1.2380 hc        1 GAQ      0.068700
     10 H42         2.7740    0.8640    1.2120 hc        1 GAQ      0.068700
     11 H31         0.6360    0.9780    2.5410 hc        1 GAQ      0.054200
     12 H32         0.5530   -0.8230    2.5660 hc        1 GAQ      0.054200
     13 H21         2.8720    0.8900    3.7280 hc        1 GAQ      0.053700
     14 H22         2.7870   -0.9120    3.7530 hc        1 GAQ      0.053700
     15 H1          0.7340    1.0210    5.0610 h1        1 GAQ      0.022700
     16 H11         0.6470   -0.8030    5.0860 h1        1 GAQ      0.022700
     17 HO1         1.7290    0.0850    6.9150 ho        1 GAQ      0.400000
@<TRIPOS>BOND
     1    1    2 2   
     2    2    3 1   
     3    2    8 1   
     4    3    4 1   
     5    3    9 1   
     6    3   10 1   
     7    4    5 1   
     8    4   11 1   
     9    4   12 1   
    10    5    6 1   
    11    5   13 1   
    12    5   14 1   
    13    6    7 1   
    14    6   15 1   
    15    6   16 1   
    16    7   17 1   
@<TRIPOS>SUBSTRUCTURE
     1 GAQ         1 TEMP              0 ****  ****    0 ROOT
