@<TRIPOS>MOLECULE
molecule
   17    16     1     0     0
SMALL
bcc


@<TRIPOS>ATOM
      1 O5           0.0000     0.0000     0.0000 o          1 GAQ      -0.525100
      2 C5           1.2260     0.0000     0.0000 c          1 GAQ       0.564900
      3 C4           2.0870     0.0000     1.2390 c3         1 GAQ      -0.191400
      4 C3           1.2660     0.0460     2.5240 c3         1 GAQ      -0.073400
      5 C2           2.1630     0.0040     3.7590 c3         1 GAQ      -0.083400
      6 C1           1.3520     0.0930     5.0450 c3         1 GAQ       0.145400
      7 O1           2.2210     0.0320     6.1680 oh         1 GAQ      -0.611800
      8 H55          1.7360    -0.0000    -0.9560 h4         1 GAQ      -0.009800
      9 H41          2.7410     0.8640     1.2110 hc         1 GAQ       0.067200
     10 H42          2.6940    -0.8980     1.2430 hc         1 GAQ       0.067200
     11 H31          0.5940    -0.8040     2.5460 hc         1 GAQ       0.052200
     12 H32          0.6840     0.9590     2.5400 hc         1 GAQ       0.052200
     13 H21          2.7230    -0.9230     3.7580 hc         1 GAQ       0.051200
     14 H22          2.8560     0.8360     3.7200 hc         1 GAQ       0.051200
     15 H1           0.8070     1.0280     5.0630 h1         1 GAQ       0.019700
     16 H11          0.6520    -0.7330     5.0870 h1         1 GAQ       0.019700
     17 HO1          1.7150     0.0900     6.9610 ho         1 GAQ       0.404000
@<TRIPOS>BOND
     1     1     2 2
     2     2     3 1
     3     2     8 1
     4     3     4 1
     5     3     9 1
     6     3    10 1
     7     4     5 1
     8     4    11 1
     9     4    12 1
    10     5     6 1
    11     5    13 1
    12     5    14 1
    13     6     7 1
    14     6    15 1
    15     6    16 1
    16    17     7 1
@<TRIPOS>SUBSTRUCTURE
     1 GAQ         1 TEMP              0 ****  ****    0 ROOT
