@<TRIPOS>MOLECULE
GAR
   31    31     1     0     0
SMALL
bcc


@<TRIPOS>ATOM
      1 C1         -0.5110    0.5890    0.5980 c3        1 GAR      0.058100
      2 O6         -1.2120    1.6750   -0.0020 oh        1 GAR     -0.632800
      3 C2          0.8220    0.3420   -0.1420 c3        1 GAR      0.085100
      4 O8          1.0560    1.2970   -1.1600 oh        1 GAR     -0.627800
      5 C3          1.9110    0.4600    0.9740 c3        1 GAR      0.266500
      6 O4          1.2870    1.2240    2.0320 os        1 GAR     -0.465600
      7 C5         -0.1330    0.9790    2.0340 c3        1 GAR      0.098100
      8 C10        -0.4710   -0.1030    3.0940 c3        1 GAR      0.198400
      9 O12        -1.3310   -1.0770    2.6550 os        1 GAR     -0.572200
     10 N19         2.3490   -0.8380    1.4210 n         1 GAR     -0.534900
     11 C21         3.5200   -1.0170    2.1040 c         1 GAR      0.632100
     12 O22         4.4390   -0.1530    2.1430 o         1 GAR     -0.730100
     13 C23         3.7240   -2.3920    2.7670 c3        1 GAR      0.036800
     14 N24         4.7640   -2.4270    3.7650 n3        1 GAR     -0.895800
     15 P15        -0.6240   -2.5850    2.1920 p5        1 GAR      1.325900
     16 O16         0.6390   -2.6460    3.0210 o         1 GAR     -0.923833
     17 O17        -1.7130   -3.5710    2.4610 o         1 GAR     -0.923833
     18 O18        -0.2600   -2.2490    0.7630 o         1 GAR     -0.923833
     19 H1         -1.1180   -0.3730    0.6050 h1        1 GAR      0.173700
     20 HO6        -1.5400    1.3310   -0.8390 ho        1 GAR      0.388000
     21 H2          0.8130   -0.6670   -0.6390 h1        1 GAR      0.149700
     22 HO8         0.8530    2.1610   -0.7790 ho        1 GAR      0.393000
     23 H3          2.7930    1.0830    0.6560 h2        1 GAR      0.070700
     24 H5         -0.5900    1.9650    2.3150 h1        1 GAR      0.035700
     25 H101       -0.9610    0.4460    3.9530 h1        1 GAR      0.010200
     26 H102        0.4940   -0.5550    3.4640 h1        1 GAR      0.010200
     27 H19         1.5990   -1.5310    1.5630 hn        1 GAR      0.404500
     28 H231        2.7300   -2.7360    3.2110 h1        1 GAR      0.116700
     29 H232        4.0030   -3.1120    1.9480 h1        1 GAR      0.116700
     30 H241        5.5450   -1.8710    3.4590 hn        1 GAR      0.330300
     31 H242        4.4230   -2.0150    4.6150 hn        1 GAR      0.330300
@<TRIPOS>BOND
     1    1    2 1   
     2    1    3 1   
     3    1    7 1   
     4    1   19 1   
     5    2   20 1   
     6    3    4 1   
     7    3    5 1   
     8    3   21 1   
     9    4   22 1   
    10    5    6 1   
    11    5   10 1   
    12    5   23 1   
    13    6    7 1   
    14    7    8 1   
    15    7   24 1   
    16    8    9 1   
    17    8   25 1   
    18    8   26 1   
    19    9   15 1   
    20   10   11 1   
    21   10   27 1   
    22   11   12 2   
    23   11   13 1   
    24   13   14 1   
    25   13   28 1   
    26   13   29 1   
    27   14   30 1   
    28   14   31 1   
    29   15   16 1   
    30   15   17 1   
    31   15   18 1   
@<TRIPOS>SUBSTRUCTURE
     1 GAR         1 TEMP              0 ****  ****    0 ROOT
