@<TRIPOS>MOLECULE
molecule
   32    32     1     0     0
SMALL
bcc


@<TRIPOS>ATOM
      1 C1           0.0000     0.0000     0.0000 c3         1 GAR       0.102100
      2 O6          -0.5010     1.1730    -0.6440 oh         1 GAR      -0.575800
      3 C2           1.5470     0.0000     0.0000 c3         1 GAR       0.077100
      4 O8           2.0480     1.1720    -0.6460 oh         1 GAR      -0.574800
      5 C3           1.9200     0.0000     1.5000 c3         1 GAR       0.282500
      6 O4           0.7710    -0.5650     2.1680 os         1 GAR      -0.378600
      7 C5          -0.3760     0.0030     1.4980 c3         1 GAR       0.127100
      8 C10         -1.6160    -0.8600     1.7400 c3         1 GAR       0.163400
      9 O12         -1.9710    -0.8070     3.1230 os         1 GAR      -0.523200
     10 N19          3.1040    -0.8320     1.7300 ns         1 GAR      -0.538900
     11 C21          3.9850    -0.4960     2.6940 c          1 GAR       0.650100
     12 O22          3.7970     0.4920     3.3700 o          1 GAR      -0.599100
     13 C23          5.2030    -1.3520     2.9320 c3         1 GAR      -0.016200
     14 N24          5.9970    -0.7790     4.0260 nz         1 GAR      -0.796600
     15 P15         -3.2750    -1.7330     3.3050 p5         1 GAR       1.142900
     16 O16         -2.9060    -3.2230     2.9950 o          1 GAR      -0.813500
     17 O17         -3.7950    -1.6200     4.7780 o          1 GAR      -0.813500
     18 O18         -4.3950    -1.2570     2.3170 o          1 GAR      -0.813500
     19 H1          -0.3770    -0.8950    -0.4810 h1         1 GAR       0.060700
     20 HO6         -0.9700     0.9270    -1.4240 ho         1 GAR       0.399000
     21 H2           1.9230    -0.8950    -0.4810 h1         1 GAR       0.027700
     22 HO8          2.5560     0.9220    -1.4000 ho         1 GAR       0.388000
     23 H3           2.0920     1.0130     1.8430 h2         1 GAR       0.105700
     24 H5          -0.5440     1.0180     1.8390 h1         1 GAR       0.080700
     25 H101        -2.4380    -0.4870     1.1410 h1         1 GAR       0.057700
     26 H102        -1.4020    -1.8850     1.4610 h1         1 GAR       0.057700
     27 H19          3.2380    -1.6690     1.1980 hn         1 GAR       0.315500
     28 H231         5.8020    -1.3870     2.0300 hx         1 GAR       0.097200
     29 H232         4.8920    -2.3550     3.1980 hx         1 GAR       0.097200
     30 H241         6.2820     0.1480     3.7800 hn         1 GAR       0.403133
     31 H242         6.8060    -1.3460     4.1830 hn         1 GAR       0.403133
     32 H243         5.4440    -0.7480     4.8590 hn         1 GAR       0.403133
@<TRIPOS>BOND
     1     1     2 1
     2     1     3 1
     3     1     7 1
     4     1    19 1
     5     2    20 1
     6     3     4 1
     7     3     5 1
     8     3    21 1
     9     4    22 1
    10     5     6 1
    11     5    10 1
    12     5    23 1
    13     6     7 1
    14     7     8 1
    15     7    24 1
    16     8     9 1
    17     8    25 1
    18     8    26 1
    19     9    15 1
    20    10    11 1
    21    10    27 1
    22    11    12 2
    23    11    13 1
    24    13    14 1
    25    13    28 1
    26    13    29 1
    27    14    30 1
    28    14    31 1
    29    15    16 1
    30    15    17 1
    31    15    18 1
    32    32    14 1
@<TRIPOS>SUBSTRUCTURE
     1 GAR         1 TEMP              0 ****  ****    0 ROOT
