@<TRIPOS>MOLECULE
molecule
   48    50     1     0     0
SMALL
bcc


@<TRIPOS>ATOM
      1 C1           0.0000     0.0000     0.0000 ca         1 GAS      -0.113250
      2 C2           1.3820     0.0000     0.0000 ca         1 GAS      -0.145000
      3 C3           2.0730     0.0000     1.1980 ca         1 GAS      -0.147000
      4 C4           1.3820     0.0010     2.3950 ca         1 GAS      -0.145000
      5 C5          -0.0000     0.0050     2.3940 ca         1 GAS      -0.113250
      6 C6          -0.6910    -0.0000     1.1960 ca         1 GAS      -0.014300
      7 C7          -2.1990     0.0000     1.1960 c3         1 GAS      -0.127900
      8 N7          -2.6850    -0.8730     0.1260 nu         1 GAS      -0.991200
      9 C1A         -2.7000     1.4020     0.9680 ca         1 GAS      -0.014300
     10 C2A         -3.2280     2.1270     2.0200 ca         1 GAS      -0.113250
     11 C3A         -3.6880     3.4130     1.8100 ca         1 GAS      -0.145000
     12 C4A         -3.6210     3.9740     0.5480 ca         1 GAS      -0.147000
     13 C5A         -3.0930     3.2500    -0.5030 ca         1 GAS      -0.145000
     14 C6A         -2.6280     1.9650    -0.2920 ca         1 GAS      -0.113250
     15 C8          -3.8870    -1.5270     0.2660 c2         1 GAS       0.571100
     16 N8          -4.5810    -1.3880     1.3600 n2         1 GAS      -0.449900
     17 C9          -5.8110    -2.1590     1.5510 c3         1 GAS      -0.243200
     18 C10         -5.6320    -3.1160     2.7000 c          1 GAS       0.945600
     19 O1          -4.5840    -3.1500     3.3000 o          1 GAS      -0.789800
     20 O2          -6.6380    -3.9310     3.0590 o          1 GAS      -0.789800
     21 N11         -4.3570    -2.3290    -0.7490 nu         1 GAS      -0.827600
     22 C1B         -4.4560    -1.8250    -2.0460 ca         1 GAS       0.173600
     23 C2B         -4.7740    -2.6760    -3.0990 ca         1 GAS      -0.205000
     24 C3B         -4.8750    -2.1830    -4.3800 ca         1 GAS      -0.062500
     25 C4B         -4.6560    -0.8240    -4.6220 ca         1 GAS      -0.072000
     26 C7B         -4.7580    -0.3070    -5.9530 cg         1 GAS       0.250800
     27 N7B         -4.8240     0.1150    -7.0070 n1         1 GAS      -0.384800
     28 C5B         -4.3350     0.0280    -3.5620 ca         1 GAS      -0.062500
     29 C6B         -4.2440    -0.4720    -2.2820 ca         1 GAS      -0.205000
     30 H1          -0.5410    -0.0390    -0.9380 ha         1 GAS       0.140250
     31 H2           1.9240    -0.0140    -0.9380 ha         1 GAS       0.114000
     32 H3           3.1560     0.0000     1.1990 ha         1 GAS       0.111000
     33 H4           1.9240     0.0290     3.3320 ha         1 GAS       0.114000
     34 H5          -0.5410     0.0640     3.3300 ha         1 GAS       0.140250
     35 H7          -2.5600    -0.7040     0.4560 h1         1 GAS       0.341700
     36 HN7         -3.2630    -1.6600     0.3460 hn         1 GAS       0.542800
     37 H2A         -3.2970     1.6800     3.0040 ha         1 GAS       0.140250
     38 H3A         -4.1020     3.9810     2.6340 ha         1 GAS       0.114000
     39 H4A         -3.9820     4.9820     0.3840 ha         1 GAS       0.111000
     40 H5A         -3.0400     3.6900    -1.4910 ha         1 GAS       0.114000
     41 H6A         -2.1710     1.4140    -1.1050 ha         1 GAS       0.140250
     42 H91         -5.5600    -3.1900     1.7700 h1         1 GAS       0.163700
     43 H92         -6.4070    -2.1170     0.6480 h1         1 GAS       0.163700
     44 HN1         -4.5950    -1.9270    -1.6350 hn         1 GAS       0.527800
     45 H2B         -4.9670    -3.7250    -2.9080 ha         1 GAS       0.177500
     46 H3B         -5.1090    -2.8500    -5.2010 ha         1 GAS       0.146000
     47 H5B         -4.1510     1.0790    -3.7490 ha         1 GAS       0.146000
     48 H6B         -4.6650     0.4060    -1.8070 ha         1 GAS       0.177500
@<TRIPOS>BOND
     1     1     2 ar
     2     1     6 ar
     3     1    30 1
     4     2     3 ar
     5     2    31 1
     6     3     4 ar
     7     3    32 1
     8     4     5 ar
     9     4    33 1
    10     5     6 ar
    11     5    34 1
    12     6     7 1
    13     7     8 1
    14     7     9 1
    15     7    35 1
    16     8    15 1
    17     8    36 1
    18     9    10 ar
    19     9    14 ar
    20    10    11 ar
    21    10    37 1
    22    11    12 ar
    23    11    38 1
    24    12    13 ar
    25    12    39 1
    26    13    14 ar
    27    13    40 1
    28    14    41 1
    29    15    16 2
    30    15    21 1
    31    16    17 1
    32    17    18 1
    33    17    42 1
    34    17    43 1
    35    18    19 1
    36    18    20 1
    37    21    22 1
    38    21    44 1
    39    22    23 ar
    40    22    29 ar
    41    23    24 ar
    42    23    45 1
    43    24    25 ar
    44    24    46 1
    45    25    26 1
    46    25    28 ar
    47    26    27 3
    48    28    29 ar
    49    28    47 1
    50    29    48 1
@<TRIPOS>SUBSTRUCTURE
     1 GAS         1 TEMP              0 ****  ****    0 ROOT
