@<TRIPOS>MOLECULE
GAS
   48    50     1     0     0
SMALL
bcc


@<TRIPOS>ATOM
      1 C1           0.0000     0.0000     0.0000 ca         1 GAS      -0.086250
      2 C2           1.3820     0.0000     0.0000 ca         1 GAS      -0.109250
      3 C3           2.0730     0.0000     1.1980 ca         1 GAS      -0.114000
      4 C4           1.3820     0.0010     2.3950 ca         1 GAS      -0.109250
      5 C5          -0.0000     0.0050     2.3940 ca         1 GAS      -0.086250
      6 C6          -0.6910    -0.0000     1.1960 ca         1 GAS      -0.080300
      7 C7          -2.1990     0.0000     1.1960 c3         1 GAS       0.256100
      8 N7          -2.6850    -0.8730     0.1260 nu         1 GAS      -0.499200
      9 C1A         -2.7000     1.4020     0.9680 ca         1 GAS      -0.080300
     10 C2A         -3.2280     2.1270     2.0200 ca         1 GAS      -0.086250
     11 C3A         -3.6880     3.4130     1.8100 ca         1 GAS      -0.109250
     12 C4A         -3.6210     3.9740     0.5480 ca         1 GAS      -0.114000
     13 C5A         -3.0930     3.2500    -0.5030 ca         1 GAS      -0.109250
     14 C6A         -2.6280     1.9650    -0.2920 ca         1 GAS      -0.086250
     15 C8          -3.8870    -1.5270     0.2660 c2         1 GAS       0.407100
     16 N8          -4.5810    -1.3880     1.3600 n2         1 GAS      -0.508900
     17 C9          -5.8110    -2.1590     1.5510 c3         1 GAS      -0.283200
     18 C10         -5.6320    -3.1160     2.7000 c          1 GAS       1.001600
     19 O1          -4.5840    -3.1500     3.3000 o          1 GAS      -0.852800
     20 O2          -6.6380    -3.9310     3.0590 o          1 GAS      -0.852800
     21 N11         -4.3570    -2.3290    -0.7490 nu         1 GAS      -0.249600
     22 C1B         -4.4560    -1.8250    -2.0460 ca         1 GAS       0.113600
     23 C2B         -4.7740    -2.6760    -3.0990 ca         1 GAS      -0.245500
     24 C3B         -4.8750    -2.1830    -4.3800 ca         1 GAS      -0.004500
     25 C4B         -4.6560    -0.8240    -4.6220 ca         1 GAS      -0.112000
     26 C7B         -4.7580    -0.3070    -5.9530 cg         1 GAS       0.271800
     27 N7B         -4.8220     0.0940    -7.0150 n1         1 GAS      -0.446800
     28 C5B         -4.3350     0.0280    -3.5620 ca         1 GAS      -0.004500
     29 C6B         -4.2440    -0.4720    -2.2820 ca         1 GAS      -0.245500
     30 H1          -0.5420     0.0090    -0.9380 ha         1 GAS       0.111500
     31 H2           1.9240    -0.0050    -0.9380 ha         1 GAS       0.095250
     32 H3           3.1560    -0.0000     1.1990 ha         1 GAS       0.092500
     33 H4           1.9240    -0.0030     3.3330 ha         1 GAS       0.095250
     34 H5          -0.5420     0.0250     3.3320 ha         1 GAS       0.111500
     35 H7          -2.5600    -0.3930     2.1390 h1         1 GAS       0.084700
     36 HN7         -2.1220    -1.0290    -0.6860 hn         1 GAS       0.290800
     37 H2A         -3.2230     1.7100     3.0200 ha         1 GAS       0.111500
     38 H3A         -4.1020     3.9810     2.6340 ha         1 GAS       0.095250
     39 H4A         -3.9790     4.9840     0.3850 ha         1 GAS       0.092500
     40 H5A         -3.0400     3.6900    -1.4910 ha         1 GAS       0.095250
     41 H6A         -2.1560     1.4200    -1.1010 ha         1 GAS       0.111500
     42 H91         -5.8810    -2.9230     0.7850 h1         1 GAS       0.135200
     43 H92         -5.7950    -2.6270     2.5270 h1         1 GAS       0.135200
     44 HN1         -4.4370    -3.3170    -0.6110 hn         1 GAS       0.288800
     45 H2B         -4.9440    -3.7300    -2.9120 ha         1 GAS       0.138500
     46 H3B         -5.1240    -2.8480    -5.1990 ha         1 GAS       0.101000
     47 H5B         -4.1430     1.0770    -3.7500 ha         1 GAS       0.101000
     48 H6B         -4.9910     0.2650    -2.0150 ha         1 GAS       0.138500
@<TRIPOS>BOND
     1     1     2 ar  
     2     1     6 ar  
     3     1    30 1   
     4     2     3 ar  
     5     2    31 1   
     6     3     4 ar  
     7     3    32 1   
     8     4     5 ar  
     9     4    33 1   
    10     5     6 ar  
    11     5    34 1   
    12     6     7 1   
    13     7     8 1   
    14     7     9 1   
    15     7    35 1   
    16     8    15 1   
    17     8    36 1   
    18     9    10 ar  
    19     9    14 ar  
    20    10    11 ar  
    21    10    37 1   
    22    11    12 ar  
    23    11    38 1   
    24    12    13 ar  
    25    12    39 1   
    26    13    14 ar  
    27    13    40 1   
    28    14    41 1   
    29    15    16 2   
    30    15    21 1   
    31    16    17 1   
    32    17    18 1   
    33    17    42 1   
    34    17    43 1   
    35    18    19 1   
    36    18    20 1   
    37    21    22 1   
    38    21    44 1   
    39    22    23 ar  
    40    22    29 ar  
    41    23    24 ar  
    42    23    45 1   
    43    24    25 ar  
    44    24    46 1   
    45    25    26 1   
    46    25    28 ar  
    47    26    27 3   
    48    28    29 ar  
    49    28    47 1   
    50    29    48 1   
@<TRIPOS>SUBSTRUCTURE
     1 GAS         1 TEMP              0 ****  ****    0 ROOT
