@<TRIPOS>MOLECULE
GAT
   36    37     1     0     0
SMALL
bcc


@<TRIPOS>ATOM
      1 C1           0.0000     0.0000     0.0000 c3         1 GAT       0.329900
      2 C2           1.5310     0.0000     0.0000 c3         1 GAT       0.149100
      3 C3           2.0320     0.0000     1.4460 c3         1 GAT       0.157100
      4 C4           1.3820     1.1710     2.1900 c3         1 GAT       0.143100
      5 C5          -0.1380     1.0830     2.0260 c3         1 GAT       0.143100
      6 C6          -0.7990     2.2300     2.7940 c3         1 GAT       0.222400
      7 C7          -1.7950    -1.2770     0.3990 ca         1 GAT       0.126100
      8 C8          -2.4300    -0.2990    -0.3520 ca         1 GAT      -0.166500
      9 C9          -3.7710    -0.4260    -0.6570 ca         1 GAT      -0.073500
     10 C10         -4.4830    -1.5310    -0.2110 ca         1 GAT      -0.009400
     11 C11         -3.8480    -2.5060     0.5460 ca         1 GAT      -0.073500
     12 C12         -2.5050    -2.3820     0.8440 ca         1 GAT      -0.166500
     13 N1          -5.8420    -1.6610    -0.5190 nv         1 GAT      -0.558200
     14 O1          -0.4740    -1.1520     0.6980 os         1 GAT      -0.296900
     15 O2           2.0080    -1.1670    -0.6730 oh         1 GAT      -0.572800
     16 O3           3.4520     0.1500     1.4650 oh         1 GAT      -0.577800
     17 O4           1.8500     2.4050     1.6460 oh         1 GAT      -0.563800
     18 O5          -0.4810     1.1770     0.6460 os         1 GAT      -0.372600
     19 O6          -2.2160     2.1460     2.6480 oh         1 GAT      -0.578800
     20 H1          -0.3580    -0.0200    -1.0220 h2         1 GAT       0.053700
     21 H2           1.8910     0.8880    -0.5060 h1         1 GAT       0.042700
     22 H3           1.7540    -0.9310     1.9250 h1         1 GAT       0.027700
     23 H4           1.6340     1.1140     3.2420 h1         1 GAT       0.007700
     24 H5          -0.4850     0.1350     2.4180 h1         1 GAT       0.048700
     25 H61         -0.5390     2.1600     3.8430 h1         1 GAT      -0.005300
     26 H62         -0.4510     3.1770     2.3980 h1         1 GAT      -0.005300
     27 H8          -1.8750     0.5630    -0.7000 ha         1 GAT       0.129000
     28 H9          -4.2670     0.3360    -1.2450 ha         1 GAT       0.106000
     29 H11         -4.4030    -3.3690     0.8940 ha         1 GAT       0.106000
     30 H12         -2.0080    -3.1440     1.4320 ha         1 GAT       0.129000
     31 HN11        -6.5330    -1.2800     0.0960 hn         1 GAT       0.269300
     32 HN12        -6.1220    -2.1340    -1.3560 hn         1 GAT       0.269300
     33 HO2          2.4620    -0.9130    -1.4590 ho         1 GAT       0.393000
     34 HO3          3.8340    -0.5330     1.9910 ho         1 GAT       0.391000
     35 HO4          2.4510     2.8070     2.2520 ho         1 GAT       0.390000
     36 HO6         -2.6280     2.7740     3.2180 ho         1 GAT       0.387000
@<TRIPOS>BOND
     1     1     2 1   
     2     1    14 1   
     3     1    18 1   
     4     1    20 1   
     5     2     3 1   
     6     2    15 1   
     7     2    21 1   
     8     3     4 1   
     9     3    16 1   
    10     3    22 1   
    11     4     5 1   
    12     4    17 1   
    13     4    23 1   
    14     5     6 1   
    15     5    18 1   
    16     5    24 1   
    17     6    19 1   
    18     6    25 1   
    19     6    26 1   
    20     7     8 ar  
    21     7    12 ar  
    22     7    14 1   
    23     8     9 ar  
    24     8    27 1   
    25     9    10 ar  
    26     9    28 1   
    27    10    11 ar  
    28    10    13 1   
    29    11    12 ar  
    30    11    29 1   
    31    12    30 1   
    32    13    31 1   
    33    13    32 1   
    34    15    33 1   
    35    16    34 1   
    36    17    35 1   
    37    19    36 1   
@<TRIPOS>SUBSTRUCTURE
     1 GAT         1 TEMP              0 ****  ****    0 ROOT
