@<TRIPOS>MOLECULE
molecule
   46    48     1     0     0
SMALL
bcc


@<TRIPOS>ATOM
      1 O6           0.0000     0.0000     0.0000 o          1 GAV      -0.673500
      2 C6           1.2190     0.0000     0.0000 c          1 GAV       0.669000
      3 C5           1.9430     0.0000     1.2150 cc         1 GAV       0.129800
      4 C4           3.3420    -0.0010     1.1600 cd         1 GAV       0.118800
      5 N3           3.9590    -0.0000    -0.0270 nd         1 GAV      -0.670100
      6 C2           3.2740    -0.0010    -1.1480 cc         1 GAV       0.154800
      7 N2           3.9510     0.0000    -2.3430 nz         1 GAV      -0.638600
      8 N1           1.9120    -0.0050    -1.1610 ns         1 GAV      -0.478400
      9 N7           1.5920    -0.0010     2.5240 nc         1 GAV      -0.623000
     10 C8           2.6650    -0.0010     3.2590 cd         1 GAV       0.401400
     11 N9           3.7730    -0.0010     2.4590 na         1 GAV      -0.226900
     12 C1'          5.1660    -0.0010     2.9110 c3         1 GAV       0.273800
     13 C2'          5.7250     1.4440     2.9590 c3         1 GAV       0.087100
     14 O2'          6.2400     1.8340     1.6840 oh         1 GAV      -0.569800
     15 C3'          6.8630     1.3170     4.0000 c3         1 GAV       0.076100
     16 O3'          8.1230     1.1550     3.3460 oh         1 GAV      -0.579800
     17 O4'          5.2570    -0.4430     4.2820 os         1 GAV      -0.384600
     18 C4'          6.5030     0.0510     4.8010 c3         1 GAV       0.124100
     19 C5'          6.3490     0.3980     6.2830 c3         1 GAV       0.209400
     20 O5'          6.1320    -0.7990     7.0320 os         1 GAV      -0.557200
     21 PA           5.9260    -0.8080     8.6290 p5         1 GAV       1.515500
     22 S1A          4.1320     0.2100     9.1170 sh         1 GAV      -0.636200
     23 O2A          7.0700    -0.1310     9.2780 o          1 GAV      -0.779300
     24 O3A          5.8380    -2.3300     9.1500 os         1 GAV      -0.656800
     25 PB           5.6430    -3.0070    10.5970 p5         1 GAV       1.442800
     26 O1B          4.0850    -2.9730    11.0000 o          1 GAV      -0.804500
     27 O2B          6.4290    -2.2570    11.6030 o          1 GAV      -0.804500
     28 O3B          6.1520    -4.5340    10.5490 os         1 GAV      -0.706800
     29 PG           6.5110    -5.6290    11.6730 p5         1 GAV       1.290900
     30 O1G          7.9350    -5.2710    12.3350 o          1 GAV      -0.595833
     31 O3G          6.5860    -7.0880    10.9950 o          1 GAV      -0.595833
     32 O2G          5.4650    -5.6240    12.7190 o          1 GAV      -0.595833
     33 H1           1.4210    -0.0050    -2.0330 hn         1 GAV       0.289500
     34 H2N1         3.7870     0.8650    -2.8190 hn         1 GAV       0.392800
     35 H2N2         4.9310    -0.1050    -2.1710 hn         1 GAV       0.392800
     36 H8           2.6790    -0.0030     4.3420 h5         1 GAV       0.081100
     37 H1'          5.7800    -0.6240     2.2710 h2         1 GAV       0.093700
     38 H2'          4.9670     2.1360     3.3030 h1         1 GAV       0.063700
     39 HA           6.2680     2.7750     1.6310 ho         1 GAV       0.391000
     40 H3'          6.8760     2.1830     4.6510 h1         1 GAV       0.043700
     41 HB           8.7280     1.8040     3.6640 ho         1 GAV       0.398000
     42 H4'          7.2760    -0.6970     4.6710 h1         1 GAV       0.089700
     43 H5'1         7.2490     0.8860     6.6350 h1         1 GAV       0.045200
     44 H5'2         5.5030     1.0630     6.4110 h1         1 GAV       0.045200
     45 H1A          4.3450     1.0100    10.1550 hs         1 GAV       0.365800
     46 H23          3.6350    -0.7650    -2.9060 hn         1 GAV       0.392800
@<TRIPOS>BOND
     1     1     2 2
     2     2     3 1
     3     3     4 2
     4     4     5 1
     5     5     6 2
     6     6     7 1
     7     2     8 1
     8     6     8 1
     9     3     9 1
    10     9    10 2
    11     4    11 1
    12    10    11 1
    13    11    12 1
    14    12    13 1
    15    13    14 1
    16    13    15 1
    17    15    16 1
    18    12    17 1
    19    15    18 1
    20    17    18 1
    21    18    19 1
    22    19    20 1
    23    20    21 1
    24    21    22 1
    25    21    23 2
    26    21    24 1
    27    24    25 1
    28    25    26 1
    29    25    27 1
    30    25    28 1
    31    28    29 1
    32    29    30 1
    33    29    31 1
    34    29    32 1
    35     8    33 1
    36     7    34 1
    37     7    35 1
    38    10    36 1
    39    12    37 1
    40    13    38 1
    41    14    39 1
    42    15    40 1
    43    16    41 1
    44    18    42 1
    45    19    43 1
    46    19    44 1
    47    22    45 1
    48    46     7 1
@<TRIPOS>SUBSTRUCTURE
     1 GAV         1 TEMP              0 ****  ****    0 ROOT
