@<TRIPOS>MOLECULE
molecule
   73    76     1     0     0
SMALL
bcc


@<TRIPOS>ATOM
      1 C10          0.0000     0.0000     0.0000 ca         1 GAW       0.611200
      2 C13          1.3040     0.0010     2.4010 ca         1 GAW      -0.098700
      3 C15          2.7490     1.1470     4.0610 c3         1 GAW       0.103300
      4 C20          1.2790    -2.4350     2.4830 c3         1 GAW      -0.101100
      5 C21          1.6870    -3.5050     4.6820 ca         1 GAW      -0.080300
      6 C22          2.8920    -3.3970     5.3490 ca         1 GAW      -0.043000
      7 C24          2.7650    -5.7110     5.9520 ca         1 GAW      -0.037000
      8 C26          1.0200    -4.7160     4.6500 ca         1 GAW      -0.043000
      9 C02          4.2560     1.1710     1.0000 ca         1 GAW      -0.065300
     10 C03          5.6340     1.1670     1.0530 ca         1 GAW      -0.128000
     11 C04          6.3140     0.0030     1.3650 ca         1 GAW      -0.115000
     12 C05          5.6170    -1.1630     1.6270 ca         1 GAW      -0.129000
     13 C06          4.2370    -1.1710     1.5780 ca         1 GAW      -0.113000
     14 C07          3.5470     0.0000     1.2680 cp         1 GAW      -0.058000
     15 C08          2.0650     0.0000     1.2200 cp         1 GAW       0.006000
     16 C09          1.3880     0.0000     0.0000 ca         1 GAW      -0.247300
     17 C12         -0.0770    -0.0010     2.3110 ca         1 GAW       0.430200
     18 C18          1.0950    -2.3010     3.9950 c3         1 GAW      -0.084700
     19 C19         -0.3970    -2.2100     4.3210 c3         1 GAW      -0.101100
     20 C23          3.4320    -4.5000     5.9850 ca         1 GAW      -0.190300
     21 C25          1.5600    -5.8180     5.2840 ca         1 GAW      -0.190300
     22 C27          0.8340    -7.1390     5.2490 c3         1 GAW       0.678200
     23 C31          4.7470    -4.3830     6.7110 c3         1 GAW       0.678200
     24 C36         -0.2820    -1.1310    -2.0510 c3         1 GAW       0.126800
     25 C37         -0.9980    -1.0450    -3.4010 c3         1 GAW       0.159300
     26 C39         -2.8570     0.0900    -2.3440 c3         1 GAW       0.159300
     27 C40         -2.1400     0.0030    -0.9930 c3         1 GAW       0.126800
     28 F28          1.2500    -7.8710     4.1320 f          1 GAW      -0.221133
     29 F29          1.1210    -7.8600     6.4120 f          1 GAW      -0.221133
     30 F30         -0.5440    -6.9110     5.1700 f          1 GAW      -0.221133
     31 F32          4.5140    -4.0230     8.0420 f          1 GAW      -0.221133
     32 F33          5.4130    -5.6120     6.6690 f          1 GAW      -0.221133
     33 F34          5.5350    -3.4050     6.0940 f          1 GAW      -0.221133
     34 N11         -0.6800    -0.0010     1.1360 nb         1 GAW      -0.732000
     35 N14          1.9350     0.0000     3.6510 n          1 GAW      -0.385000
     36 N35         -0.6870     0.0050    -1.2110 nh         1 GAW      -0.691300
     37 N38         -2.4520    -1.0470    -3.1830 n3         1 GAW      -0.721600
     38 O17          2.2250    -1.0010     5.6100 o          1 GAW      -0.595100
     39 H1           3.7980     0.8840     4.0030 h1         1 GAW       0.051367
     40 H2           2.5010     1.4210     5.0790 h1         1 GAW       0.051367
     41 H3           2.5490     1.9850     3.4030 h1         1 GAW       0.051367
     42 H4           1.4670    -3.4720     2.2330 hc         1 GAW       0.053033
     43 H5           2.1190    -1.8290     2.1660 hc         1 GAW       0.053033
     44 H6           0.3800    -2.1000     1.9780 hc         1 GAW       0.053033
     45 H7           3.4140    -2.4490     5.3750 ha         1 GAW       0.169000
     46 H8           3.1880    -6.5760     6.4500 ha         1 GAW       0.161000
     47 H9           0.0750    -4.8010     4.1270 ha         1 GAW       0.169000
     48 H10          4.1110     3.2950     0.9570 hc         1 GAW       0.048033
     49 H11          3.3380     2.4780    -0.4090 hc         1 GAW       0.048033
     50 H12          2.5690     2.4580     1.1840 hc         1 GAW       0.048033
     51 H13          6.1860     2.0760     0.8490 ha         1 GAW       0.136000
     52 H14          7.3960     0.0040     1.4050 ha         1 GAW       0.134000
     53 H15          6.1540    -2.0720     1.8690 ha         1 GAW       0.137000
     54 H16          3.6910    -2.0830     1.7850 ha         1 GAW       0.140000
     55 H17          1.9380     0.0000    -0.9330 ha         1 GAW       0.157000
     56 H18         -0.6710    -0.0010     3.2170 h4         1 GAW       0.037100
     57 H19         -0.6110    -2.8030     5.2020 hc         1 GAW       0.053033
     58 H20         -0.6630    -1.1760     4.5080 hc         1 GAW       0.053033
     59 H21         -0.9740    -2.5850     3.4840 hc         1 GAW       0.053033
     60 H22          0.7890    -1.0980    -2.2100 h1         1 GAW       0.053450
     61 H23         -0.5520    -2.0570    -1.5590 h1         1 GAW       0.053450
     62 H24         -0.7240    -1.8980    -4.0090 h1         1 GAW       0.065450
     63 H25         -0.7110    -0.1290    -3.9030 h1         1 GAW       0.065450
     64 H26         -2.5870     1.0160    -2.8360 h1         1 GAW       0.065450
     65 H27         -3.9280     0.0570    -2.1850 h1         1 GAW       0.065450
     66 H28         -2.4280    -0.9120    -0.4900 h1         1 GAW       0.053450
     67 H29         -2.4140     0.8570    -0.3850 h1         1 GAW       0.053450
     68 H30         -3.9690    -2.3000    -2.4630 h1         1 GAW       0.035033
     69 H31         -2.6260    -3.1340    -3.2580 h1         1 GAW       0.035033
     70 H32         -2.4130    -2.4600    -1.6360 h1         1 GAW       0.035033
     71 C01          3.5160     2.4390     0.6590 c3         1 GAW      -0.052800
     72 C16          1.7920    -1.0550     4.4770 c          1 GAW       0.671100
     73 C41         -2.8940    -2.3190    -2.5970 c3         1 GAW       0.141100
@<TRIPOS>BOND
     1    26    27 1
     2    26    37 1
     3    27    36 1
     4    37    73 1
     5    37    25 1
     6    25    24 1
     7    36    24 1
     8    36     1 1
     9    34     1 ar
    10    34    17 ar
    11     1    16 ar
    12    17     2 ar
    13    16    15 ar
    14     2    15 ar
    15     2    35 1
    16    15    14 1
    17    38    72 2
    18    35    72 1
    19    35     3 1
    20     4    18 1
    21    72    18 1
    22    71     9 1
    23    14     9 ar
    24    14    13 ar
    25    18    19 1
    26    18     5 1
    27     9    10 ar
    28    13    12 ar
    29     5     8 ar
    30     5     6 ar
    31    10    11 ar
    32     8    21 ar
    33    12    11 ar
    34     6    20 ar
    35    30    22 1
    36    21    22 1
    37    21     7 ar
    38    22    28 1
    39    22    29 1
    40    20     7 ar
    41    20    23 1
    42    32    23 1
    43    23    31 1
    44    23    33 1
    45     3    39 1
    46     3    40 1
    47     3    41 1
    48     4    42 1
    49     4    43 1
    50     4    44 1
    51     6    45 1
    52     7    46 1
    53     8    47 1
    54    71    48 1
    55    71    49 1
    56    71    50 1
    57    10    51 1
    58    11    52 1
    59    12    53 1
    60    13    54 1
    61    16    55 1
    62    17    56 1
    63    19    57 1
    64    19    58 1
    65    19    59 1
    66    24    60 1
    67    24    61 1
    68    25    62 1
    69    25    63 1
    70    26    64 1
    71    26    65 1
    72    27    66 1
    73    27    67 1
    74    73    68 1
    75    73    69 1
    76    73    70 1
@<TRIPOS>SUBSTRUCTURE
     1 GAW         1 TEMP              0 ****  ****    0 ROOT
