@<TRIPOS>MOLECULE
GAW
   73    76     1     0     0
SMALL
bcc


@<TRIPOS>ATOM
      1 C10          0.0000     0.0000     0.0000 ca         1 GAW       0.492200
      2 C13          1.3040     0.0010     2.4010 ca         1 GAW      -0.224700
      3 C15          2.7490     1.1470     4.0610 c3         1 GAW       0.066300
      4 C20          1.2790    -2.4350     2.4830 c3         1 GAW      -0.050600
      5 C21          1.6870    -3.5050     4.6820 ca         1 GAW      -0.085300
      6 C22          2.8920    -3.3970     5.3490 ca         1 GAW      -0.010000
      7 C24          2.7650    -5.7110     5.9520 ca         1 GAW       0.012000
      8 C26          1.0200    -4.7160     4.6500 ca         1 GAW      -0.010000
      9 C02          4.2560     1.1710     1.0000 ca         1 GAW      -0.068300
     10 C03          5.6340     1.1670     1.0530 ca         1 GAW      -0.099000
     11 C04          6.3140     0.0030     1.3650 ca         1 GAW      -0.084000
     12 C05          5.6170    -1.1630     1.6270 ca         1 GAW      -0.099000
     13 C06          4.2370    -1.1710     1.5780 ca         1 GAW      -0.101000
     14 C07          3.5470     0.0000     1.2680 cp         1 GAW      -0.063000
     15 C08          2.0650     0.0000     1.2200 cp         1 GAW       0.024000
     16 C09          1.3880     0.0000     0.0000 ca         1 GAW      -0.226300
     17 C12         -0.0770    -0.0010     2.3110 ca         1 GAW       0.413200
     18 C18          1.0950    -2.3010     3.9950 c3         1 GAW      -0.066700
     19 C19         -0.3970    -2.2100     4.3210 c3         1 GAW      -0.050600
     20 C23          3.4320    -4.5000     5.9850 ca         1 GAW      -0.219800
     21 C25          1.5600    -5.8180     5.2840 ca         1 GAW      -0.219800
     22 C27          0.8340    -7.1390     5.2490 c3         1 GAW       0.644200
     23 C31          4.7470    -4.3830     6.7110 c3         1 GAW       0.644200
     24 C36         -0.2820    -1.1310    -2.0510 c3         1 GAW       0.096800
     25 C37         -0.9980    -1.0450    -3.4010 c3         1 GAW       0.155300
     26 C39         -2.8570     0.0900    -2.3440 c3         1 GAW       0.155300
     27 C40         -2.1400     0.0030    -0.9930 c3         1 GAW       0.096800
     28 F28          1.2500    -7.8710     4.1320 f          1 GAW      -0.206300
     29 F29          1.1210    -7.8600     6.4120 f          1 GAW      -0.206300
     30 F30         -0.5440    -6.9110     5.1700 f          1 GAW      -0.206300
     31 F32          4.5140    -4.0230     8.0420 f          1 GAW      -0.206300
     32 F33          5.4130    -5.6120     6.6690 f          1 GAW      -0.206300
     33 F34          5.5350    -3.4050     6.0940 f          1 GAW      -0.206300
     34 N11         -0.6800    -0.0010     1.1360 nb         1 GAW      -0.619000
     35 N14          1.9350     0.0000     3.6510 n          1 GAW       0.003000
     36 N35         -0.6870     0.0050    -1.2110 nh         1 GAW      -0.457300
     37 N38         -2.4520    -1.0470    -3.1830 n3         1 GAW      -0.541600
     38 O17          2.2250    -1.0010     5.6100 o          1 GAW      -0.635100
     39 H1           3.7980     0.8840     4.0030 h1         1 GAW       0.022700
     40 H2           2.5010     1.4210     5.0790 h1         1 GAW       0.022700
     41 H3           2.5490     1.9850     3.4030 h1         1 GAW       0.022700
     42 H4           1.4670    -3.4720     2.2330 hc         1 GAW       0.030367
     43 H5           2.1190    -1.8290     2.1660 hc         1 GAW       0.030367
     44 H6           0.3800    -2.1000     1.9780 hc         1 GAW       0.030367
     45 H7           3.4140    -2.4490     5.3750 ha         1 GAW       0.144500
     46 H8           3.1880    -6.5760     6.4500 ha         1 GAW       0.130000
     47 H9           0.0750    -4.8010     4.1270 ha         1 GAW       0.144500
     48 H10          4.1110     3.2950     0.9570 hc         1 GAW       0.014033
     49 H11          3.3380     2.4780    -0.4090 hc         1 GAW       0.014033
     50 H12          2.5690     2.4580     1.1840 hc         1 GAW       0.014033
     51 H13          6.1860     2.0760     0.8490 ha         1 GAW       0.111000
     52 H14          7.3960     0.0040     1.4050 ha         1 GAW       0.107000
     53 H15          6.1540    -2.0720     1.8690 ha         1 GAW       0.110000
     54 H16          3.6910    -2.0830     1.7850 ha         1 GAW       0.121000
     55 H17          1.9380     0.0000    -0.9330 ha         1 GAW       0.136000
     56 H18         -0.6710    -0.0010     3.2170 h4         1 GAW       0.002100
     57 H19         -0.6110    -2.8030     5.2020 hc         1 GAW       0.030367
     58 H20         -0.6630    -1.1760     4.5080 hc         1 GAW       0.030367
     59 H21         -0.9740    -2.5850     3.4840 hc         1 GAW       0.030367
     60 H22          0.7890    -1.0980    -2.2100 h1         1 GAW       0.031200
     61 H23         -0.5520    -2.0570    -1.5590 h1         1 GAW       0.031200
     62 H24         -0.7240    -1.8980    -4.0090 h1         1 GAW       0.031450
     63 H25         -0.7110    -0.1290    -3.9030 h1         1 GAW       0.031450
     64 H26         -2.5870     1.0160    -2.8360 h1         1 GAW       0.031450
     65 H27         -3.9280     0.0570    -2.1850 h1         1 GAW       0.031450
     66 H28         -2.4280    -0.9120    -0.4900 h1         1 GAW       0.031200
     67 H29         -2.4140     0.8570    -0.3850 h1         1 GAW       0.031200
     68 H30         -3.9690    -2.3000    -2.4630 h1         1 GAW       0.005700
     69 H31         -2.6260    -3.1340    -3.2580 h1         1 GAW       0.005700
     70 H32         -2.4130    -2.4600    -1.6360 h1         1 GAW       0.005700
     71 C01          3.5160     2.4390     0.6590 c3         1 GAW       0.051200
     72 C16          1.7920    -1.0550     4.4770 c          1 GAW       0.580100
     73 C41         -2.8940    -2.3190    -2.5970 c3         1 GAW       0.168100
@<TRIPOS>BOND
     1     1    16 ar  
     2     1    34 ar  
     3     1    36 1   
     4     2    15 ar  
     5     2    17 ar  
     6     2    35 1   
     7     3    35 1   
     8     3    39 1   
     9     3    40 1   
    10     3    41 1   
    11     4    18 1   
    12     4    42 1   
    13     4    43 1   
    14     4    44 1   
    15     5     6 ar  
    16     5     8 ar  
    17     5    18 1   
    18     6    20 ar  
    19     6    45 1   
    20     7    20 ar  
    21     7    21 ar  
    22     7    46 1   
    23     8    21 ar  
    24     8    47 1   
    25     9    10 ar  
    26     9    14 ar  
    27     9    71 1   
    28    10    11 ar  
    29    10    51 1   
    30    11    12 ar  
    31    11    52 1   
    32    12    13 ar  
    33    12    53 1   
    34    13    14 ar  
    35    13    54 1   
    36    14    15 1   
    37    15    16 ar  
    38    16    55 1   
    39    17    34 ar  
    40    17    56 1   
    41    18    19 1   
    42    18    72 1   
    43    19    57 1   
    44    19    58 1   
    45    19    59 1   
    46    20    23 1   
    47    21    22 1   
    48    22    28 1   
    49    22    29 1   
    50    22    30 1   
    51    23    31 1   
    52    23    32 1   
    53    23    33 1   
    54    24    25 1   
    55    24    36 1   
    56    24    60 1   
    57    24    61 1   
    58    25    37 1   
    59    25    62 1   
    60    25    63 1   
    61    26    27 1   
    62    26    37 1   
    63    26    64 1   
    64    26    65 1   
    65    27    36 1   
    66    27    66 1   
    67    27    67 1   
    68    35    72 1   
    69    37    73 1   
    70    38    72 2   
    71    48    71 1   
    72    49    71 1   
    73    50    71 1   
    74    68    73 1   
    75    69    73 1   
    76    70    73 1   
@<TRIPOS>SUBSTRUCTURE
     1 GAW         1 TEMP              0 ****  ****    0 ROOT
