@<TRIPOS>MOLECULE
GAX
   50    53     1     0     0
SMALL
bcc


@<TRIPOS>ATOM
      1 N6           0.0000     0.0000     0.0000 nb         1 GAX      -0.627000
      2 C2           1.8110    -5.4690    -3.9770 ca         1 GAX      -0.115400
      3 N2           2.0840    -8.3890    -1.8670 ns         1 GAX      -0.068400
      4 N3           1.6850   -10.1770    -0.3440 nc         1 GAX      -0.633000
      5 C4           2.0860    -3.2310    -4.7930 ca         1 GAX      -0.146500
      6 N4           2.9220    -0.8440    -3.7030 n3         1 GAX      -0.535500
      7 C5           0.7720    -3.2260    -5.2210 ca         1 GAX      -0.006000
      8 C6          -0.0220    -4.3420    -5.0350 ca         1 GAX      -0.111000
      9 O1           4.4430    -2.2650    -5.0300 o          1 GAX      -0.586800
     10 O2           2.5260    -1.0940    -6.1260 o          1 GAX      -0.586800
     11 O3           0.3730    -7.0900    -2.4330 o          1 GAX      -0.662100
     12 C7           1.5550    -7.3520    -2.5450 c          1 GAX       0.536100
     13 C8           1.2780    -9.1610    -1.0390 cd         1 GAX       0.413300
     14 C10          0.7810   -10.7970     0.3920 cc         1 GAX       0.378200
     15 C9          -0.4470   -10.2820     0.3160 cd         1 GAX      -0.163400
     16 S2          -0.3930    -8.9080    -0.7860 ss         1 GAX      -0.215300
     17 C3           2.6080    -4.3480    -4.1710 ca         1 GAX      -0.028000
     18 C1           0.4930    -5.4630    -4.4150 ca         1 GAX      -0.049000
     19 S1           3.0970    -1.8080    -5.0380 sy         1 GAX       1.054200
     20 C14          1.8700     0.1820    -3.6460 c3         1 GAX       0.239300
     21 C13          1.0820    -0.0010    -2.3440 c3         1 GAX       0.119300
     22 N5           2.0120     0.0000    -1.2080 nh         1 GAX      -0.461300
     23 C12          2.9450    -1.1330    -1.2820 c3         1 GAX       0.119300
     24 C11          3.8090    -0.9970    -2.5410 c3         1 GAX       0.239300
     25 C15          1.3240     0.0000     0.0000 ca         1 GAX       0.487200
     26 C19          2.0320     0.0000     1.1970 ca         1 GAX      -0.246300
     27 C18          1.3340     0.0010     2.3910 ca         1 GAX      -0.042000
     28 C17         -0.0530     0.0000     2.3480 ca         1 GAX      -0.252300
     29 C16         -0.6910     0.0010     1.1240 ca         1 GAX       0.434200
     30 H2           3.0510    -8.6210    -1.9810 hn         1 GAX       0.171500
     31 H10          1.0180   -11.6560     1.0090 h4         1 GAX      -0.001900
     32 H9          -1.3230   -10.6440     0.8390 h4         1 GAX       0.159000
     33 H1           3.2840    -6.8790    -3.5230 hn         1 GAX       0.167500
     34 H3           3.6380    -4.3510    -3.8350 ha         1 GAX       0.122000
     35 H5           0.3650    -2.3480    -5.7080 ha         1 GAX       0.123000
     36 H6          -1.0510    -4.3360    -5.3740 ha         1 GAX       0.113000
     37 H1A         -0.1310    -6.3370    -4.2690 ha         1 GAX       0.148000
     38 H141         2.3220     1.1660    -3.6620 h1         1 GAX       0.029700
     39 H142         1.2040     0.0660    -4.4930 h1         1 GAX       0.029700
     40 H131         0.5500    -0.9440    -2.3740 h1         1 GAX       0.027700
     41 H132         0.3760     0.8140    -2.2330 h1         1 GAX       0.027700
     42 H121         2.3840    -2.0590    -1.3290 h1         1 GAX       0.027700
     43 H122         3.5820    -1.1330    -0.4060 h1         1 GAX       0.027700
     44 H111         4.4170    -1.8860    -2.6620 h1         1 GAX       0.029700
     45 H112         4.4440    -0.1240    -2.4520 h1         1 GAX       0.029700
     46 H19          3.1160    -0.0010     1.1940 ha         1 GAX       0.123000
     47 H18          1.8590     0.0010     3.3390 ha         1 GAX       0.107000
     48 H17         -0.6290     0.0010     3.2660 ha         1 GAX       0.115000
     49 H16         -1.7740     0.0000     1.0860 h4         1 GAX      -0.020900
     50 N1           2.3370    -6.6040    -3.3490 ns         1 GAX      -0.038100
@<TRIPOS>BOND
     1     1    25 ar  
     2     1    29 ar  
     3     2    17 ar  
     4     2    18 ar  
     5     2    50 1   
     6     3    12 1   
     7     3    13 1   
     8     3    30 1   
     9     4    13 2   
    10     4    14 1   
    11     5     7 ar  
    12     5    17 ar  
    13     5    19 1   
    14     6    19 1   
    15     6    20 1   
    16     6    24 1   
    17     7     8 ar  
    18     7    35 1   
    19     8    18 ar  
    20     8    36 1   
    21     9    19 2   
    22    10    19 2   
    23    11    12 2   
    24    12    50 1   
    25    13    16 1   
    26    14    15 2   
    27    14    31 1   
    28    15    16 1   
    29    15    32 1   
    30    17    34 1   
    31    18    37 1   
    32    20    21 1   
    33    20    38 1   
    34    20    39 1   
    35    21    22 1   
    36    21    40 1   
    37    21    41 1   
    38    22    23 1   
    39    22    25 1   
    40    23    24 1   
    41    23    42 1   
    42    23    43 1   
    43    24    44 1   
    44    24    45 1   
    45    25    26 ar  
    46    26    27 ar  
    47    26    46 1   
    48    27    28 ar  
    49    27    47 1   
    50    28    29 ar  
    51    28    48 1   
    52    29    49 1   
    53    33    50 1   
@<TRIPOS>SUBSTRUCTURE
     1 GAX         1 TEMP              0 ****  ****    0 ROOT
