@<TRIPOS>MOLECULE
molecule
   50    53     1     0     0
SMALL
bcc


@<TRIPOS>ATOM
      1 N6           0.0000     0.0000     0.0000 nb         1 GAX      -0.740000
      2 C2           1.8110    -5.4690    -3.9770 ca         1 GAX       0.043600
      3 N2           2.0840    -8.3890    -1.8670 ns         1 GAX      -0.528400
      4 N3           1.6850   -10.1770    -0.3440 nc         1 GAX      -0.744000
      5 C4           2.0860    -3.2310    -4.7930 ca         1 GAX      -0.299500
      6 N4           2.9220    -0.8440    -3.7030 n3         1 GAX      -0.820500
      7 C5           0.7720    -3.2260    -5.2210 ca         1 GAX      -0.041000
      8 C6          -0.0220    -4.3420    -5.0350 ca         1 GAX      -0.133000
      9 O1           4.4430    -2.2650    -5.0300 o          1 GAX      -0.634300
     10 O2           2.5260    -1.0940    -6.1260 o          1 GAX      -0.634300
     11 O3           0.3730    -7.0900    -2.4330 o          1 GAX      -0.631100
     12 C7           1.5550    -7.3520    -2.5450 c          1 GAX       0.782100
     13 C8           1.2780    -9.1610    -1.0390 cd         1 GAX       0.550300
     14 C10          0.7810   -10.7970     0.3920 cc         1 GAX       0.390200
     15 C9          -0.4470   -10.2820     0.3160 cd         1 GAX      -0.252400
     16 S2          -0.3930    -8.9080    -0.7860 ss         1 GAX      -0.076300
     17 C3           2.6080    -4.3480    -4.1710 ca         1 GAX      -0.062000
     18 C1           0.4930    -5.4630    -4.4150 ca         1 GAX      -0.073000
     19 S1           3.0970    -1.8080    -5.0380 sy         1 GAX       1.423200
     20 C14          1.8700     0.1820    -3.6460 c3         1 GAX       0.237800
     21 C13          1.0820    -0.0010    -2.3440 c3         1 GAX       0.153300
     22 N5           2.0120     0.0000    -1.2080 nh         1 GAX      -0.695300
     23 C12          2.9450    -1.1330    -1.2820 c3         1 GAX       0.153300
     24 C11          3.8090    -0.9970    -2.5410 c3         1 GAX       0.237800
     25 C15          1.3240     0.0000     0.0000 ca         1 GAX       0.613200
     26 C19          2.0320     0.0000     1.1970 ca         1 GAX      -0.268300
     27 C18          1.3340     0.0010     2.3910 ca         1 GAX      -0.072000
     28 C17         -0.0530     0.0000     2.3480 ca         1 GAX      -0.282300
     29 C16         -0.6910     0.0010     1.1240 ca         1 GAX       0.447200
     30 H2           3.0510    -8.6210    -1.9810 hn         1 GAX       0.340500
     31 H10          1.0180   -11.6560     1.0090 h4         1 GAX       0.042100
     32 H9          -1.3230   -10.6440     0.8390 h4         1 GAX       0.179000
     33 H1           3.2840    -6.8790    -3.5230 hn         1 GAX       0.328500
     34 H3           3.6380    -4.3510    -3.8350 ha         1 GAX       0.148000
     35 H5           0.3650    -2.3480    -5.7080 ha         1 GAX       0.151000
     36 H6          -1.0510    -4.3360    -5.3740 ha         1 GAX       0.144000
     37 H1A         -0.1310    -6.3370    -4.2690 ha         1 GAX       0.172000
     38 H141         2.3220     1.1660    -3.6620 h1         1 GAX       0.065950
     39 H142         1.2040     0.0660    -4.4930 h1         1 GAX       0.065950
     40 H131         0.5500    -0.9440    -2.3740 h1         1 GAX       0.056450
     41 H132         0.3760     0.8140    -2.2330 h1         1 GAX       0.056450
     42 H121         2.3840    -2.0590    -1.3290 h1         1 GAX       0.056450
     43 H122         3.5820    -1.1330    -0.4060 h1         1 GAX       0.056450
     44 H111         4.4170    -1.8860    -2.6620 h1         1 GAX       0.065950
     45 H112         4.4440    -0.1240    -2.4520 h1         1 GAX       0.065950
     46 H19          3.1160    -0.0010     1.1940 ha         1 GAX       0.143000
     47 H18          1.8590     0.0010     3.3390 ha         1 GAX       0.138000
     48 H17         -0.6290     0.0010     3.2660 ha         1 GAX       0.139000
     49 H16         -1.7740     0.0000     1.0860 h4         1 GAX       0.023100
     50 N1           2.3370    -6.6040    -3.3490 ns         1 GAX      -0.482100
@<TRIPOS>BOND
     1    27    28 ar
     2    27    26 ar
     3    28    29 ar
     4    14    15 2
     5    14     4 1
     6    26    25 ar
     7    15    16 1
     8    29     1 ar
     9     4    13 2
    10    16    13 1
    11    25     1 ar
    12    25    22 1
    13    13     3 1
    14     3    12 1
    15    21    22 1
    16    21    20 1
    17    22    23 1
    18    11    12 2
    19    12    50 1
    20    20     6 1
    21    23    24 1
    22    50     2 1
    23     2    17 ar
    24     2    18 ar
    25     6    24 1
    26     6    19 1
    27    17     5 ar
    28    18     8 ar
    29     5    19 1
    30     5     7 ar
    31     8     7 ar
    32    19    10 2
    33    19     9 2
    34     3    30 1
    35    14    31 1
    36    15    32 1
    37    50    33 1
    38    17    34 1
    39     7    35 1
    40     8    36 1
    41    18    37 1
    42    20    38 1
    43    20    39 1
    44    21    40 1
    45    21    41 1
    46    23    42 1
    47    23    43 1
    48    24    44 1
    49    24    45 1
    50    26    46 1
    51    27    47 1
    52    28    48 1
    53    29    49 1
@<TRIPOS>SUBSTRUCTURE
     1 GAX         1 TEMP              0 ****  ****    0 ROOT
