@<TRIPOS>MOLECULE
GB
    8     7     1     0     0
SMALL
bcc


@<TRIPOS>ATOM
      1 P1          0.1470    0.0870    0.0650 p5        1 GB       1.223700
      2 O1          1.5080   -0.4910    0.4010 o         1 GB      -0.971500
      3 O2         -0.8620    0.0170    1.1950 o         1 GB      -0.971500
      4 C1         -0.5070   -1.0400   -1.1630 c3        1 GB      -0.281300
      5 H1         -1.5070   -0.6930   -1.4850 hc        1 GB      -0.009300
      6 H2          0.1740   -1.0680   -2.0350 hc        1 GB      -0.009300
      7 H3         -0.5900   -2.0520   -0.7260 hc        1 GB      -0.009300
      8 O3          0.1910    1.4220   -0.6540 o         1 GB      -0.971500
@<TRIPOS>BOND
     1    1    2 1   
     2    1    3 1   
     3    1    4 1   
     4    1    8 1   
     5    4    5 1   
     6    4    6 1   
     7    4    7 1   
@<TRIPOS>SUBSTRUCTURE
     1 GB          1 TEMP              0 ****  ****    0 ROOT
