@<TRIPOS>MOLECULE
molecule
    8     7     1     0     0
SMALL
bcc


@<TRIPOS>ATOM
      1 P1           0.0000     0.0000     0.0000 p5         1 GB        1.062700
      2 O1           1.6170     0.0000     0.0000 o          1 GB       -0.932833
      3 O2          -0.6330     0.0000     1.3590 o          1 GB       -0.932833
      4 C1          -0.4140    -1.4090    -1.0070 c3         1 GB       -0.267300
      5 H1          -1.4860    -1.4390    -1.1620 hc         1 GB        0.001033
      6 H2           0.0870    -1.3280    -1.9650 hc         1 GB        0.001033
      7 H3          -0.0950    -2.3160    -0.5080 hc         1 GB        0.001033
      8 O3          -0.3810     1.2580    -0.9420 o          1 GB       -0.932833
@<TRIPOS>BOND
     1     1     2 1
     2     1     3 1
     3     1     4 1
     4     4     5 1
     5     4     6 1
     6     4     7 1
     7     8     1 1
@<TRIPOS>SUBSTRUCTURE
     1 GB          1 TEMP              0 ****  ****    0 ROOT
