@<TRIPOS>MOLECULE
molecule
   38    39     1     0     0
SMALL
bcc


@<TRIPOS>ATOM
      1 C15          0.0000     0.0000     0.0000 ca         1 GB1      -0.104500
      2 C14          1.3830     0.0000     0.0000 ca         1 GB1      -0.133500
      3 C13          2.0740     0.0000     1.1980 ca         1 GB1      -0.128000
      4 C12          1.3820     0.0040     2.3950 ca         1 GB1      -0.133500
      5 C11          0.0000     0.0090     2.3940 ca         1 GB1      -0.104500
      6 C10         -0.6910     0.0100     1.1970 ca         1 GB1      -0.068300
      7 C8          -2.1980     0.0150     1.1960 c3         1 GB1       0.206800
      8 C9          -2.7130    -1.4050     0.9470 c3         1 GB1       0.106400
      9 O9          -2.1440    -1.9120    -0.2620 oh         1 GB1      -0.606800
     10 N7          -2.6840     0.9050     0.1350 n7         1 GB1      -0.791200
     11 C6          -4.0260     1.3490     0.5360 c3         1 GB1       0.157800
     12 C5          -4.5950     2.2850    -0.5320 c3         1 GB1       0.134500
     13 N1          -4.6110     1.6030    -1.8430 n7         1 GB1      -0.805200
     14 C2          -5.8320     2.0880    -2.5360 c3         1 GB1       0.126800
     15 C3          -6.8830     2.1550    -1.3990 c3         1 GB1       0.131100
     16 O3          -7.9160     3.0870    -1.7190 oh         1 GB1      -0.578800
     17 C4          -6.0510     2.6490    -0.1880 c3         1 GB1       0.132100
     18 O4          -6.1940     4.0630    -0.0330 oh         1 GB1      -0.577800
     19 H15         -0.5420     0.0000    -0.9380 ha         1 GB1       0.132000
     20 H14          1.9250    -0.0050    -0.9380 ha         1 GB1       0.127000
     21 H13          3.1570    -0.0020     1.1980 ha         1 GB1       0.125000
     22 H12          1.9230     0.0030     3.3330 ha         1 GB1       0.127000
     23 H11         -0.5420     0.0140     3.3320 ha         1 GB1       0.132000
     24 H8          -2.5580     0.3660     2.1550 h1         1 GB1       0.066700
     25 H91         -3.7920    -1.3870     0.8580 h1         1 GB1       0.025700
     26 H92         -2.4290    -2.0430     1.7750 h1         1 GB1       0.025700
     27 HO9         -2.4540    -2.7900    -0.4100 ho         1 GB1       0.404000
     28 HN7         -2.7440     0.3970    -0.7260 hn         1 GB1       0.380800
     29 H61         -3.9640     1.8740     1.4820 h1         1 GB1       0.032700
     30 H62         -4.6740     0.4870     0.6430 h1         1 GB1       0.032700
     31 H5          -3.9980     3.1870    -0.5950 h1         1 GB1       0.069700
     32 HN1         -3.8020     1.8700    -2.3680 hn         1 GB1       0.361800
     33 H21         -5.6650     3.0710    -2.9580 h1         1 GB1       0.055200
     34 H22         -6.1410     1.3840    -3.2990 h1         1 GB1       0.055200
     35 H3          -7.2930     1.1720    -1.2030 h1         1 GB1       0.046700
     36 HO3         -8.7290     2.6260    -1.8420 ho         1 GB1       0.397000
     37 H4          -6.3620     2.1330     0.7130 h1         1 GB1       0.038700
     38 HO4         -6.4820     4.2560     0.8440 ho         1 GB1       0.401000
@<TRIPOS>BOND
     1     1     2 ar
     2     1     6 ar
     3     1    19 1
     4     2     3 ar
     5     2    20 1
     6     3     4 ar
     7     3    21 1
     8     4     5 ar
     9     4    22 1
    10     5     6 ar
    11     5    23 1
    12     6     7 1
    13     7     8 1
    14     7    10 1
    15     7    24 1
    16     8     9 1
    17     8    25 1
    18     8    26 1
    19     9    27 1
    20    10    11 1
    21    10    28 1
    22    11    12 1
    23    11    29 1
    24    11    30 1
    25    12    13 1
    26    12    17 1
    27    12    31 1
    28    13    14 1
    29    13    32 1
    30    14    15 1
    31    14    33 1
    32    14    34 1
    33    15    16 1
    34    15    17 1
    35    15    35 1
    36    16    36 1
    37    17    18 1
    38    17    37 1
    39    18    38 1
@<TRIPOS>SUBSTRUCTURE
     1 GB1         1 TEMP              0 ****  ****    0 ROOT
