@<TRIPOS>MOLECULE
molecule
   38    39     1     0     0
SMALL
bcc


@<TRIPOS>ATOM
      1 C8           1.4690     0.0000     0.0000 c3         1 GB2       0.206800
      2 N7           0.0000     0.0000     0.0000 n7         1 GB2      -0.776200
      3 C6          -0.4220     0.5960    -1.2740 c3         1 GB2       0.155800
      4 C5          -1.9510     0.6260    -1.3410 c3         1 GB2       0.135500
      5 N1          -2.4900     1.3680    -0.1810 n7         1 GB2      -0.777200
      6 C2          -3.6900     2.0870    -0.6830 c3         1 GB2       0.122800
      7 C3          -3.2570     2.5590    -2.0940 c3         1 GB2       0.132100
      8 O3          -4.3960     2.7660    -2.9300 oh         1 GB2      -0.580800
      9 C4          -2.4060     1.3700    -2.6100 c3         1 GB2       0.132100
     10 O4          -3.1990     0.5150    -3.4370 oh         1 GB2      -0.579800
     11 C15          1.3350    -0.7660     2.3780 ca         1 GB2      -0.103500
     12 C14          1.7990    -0.7700     3.6810 ca         1 GB2      -0.133500
     13 C13          2.8940    -0.0010     4.0270 ca         1 GB2      -0.128000
     14 C12          3.5290     0.7680     3.0690 ca         1 GB2      -0.133500
     15 C11          3.0670     0.7690     1.7650 ca         1 GB2      -0.103500
     16 C10          1.9720     0.0000     1.4210 ca         1 GB2      -0.066300
     17 C9           1.9790    -1.2480    -0.7230 c3         1 GB2       0.104400
     18 O9           1.6020    -2.4130     0.0150 oh         1 GB2      -0.608800
     19 H8           1.8300     0.8850    -0.5100 h1         1 GB2       0.070700
     20 HN7         -0.3340    -0.9420     0.0550 hn         1 GB2       0.363800
     21 H61         -0.0370     1.6060    -1.3460 h1         1 GB2       0.033700
     22 H62         -0.0370     0.0030    -2.0950 h1         1 GB2       0.033700
     23 H5          -2.3450    -0.3830    -1.3460 h1         1 GB2       0.050700
     24 HN1         -2.7630     0.7210     0.5320 hn         1 GB2       0.362800
     25 H21         -3.9160     2.9370    -0.0510 h1         1 GB2       0.053700
     26 H22         -4.5370     1.4150    -0.7500 h1         1 GB2       0.053700
     27 H3          -2.6540     3.4570    -2.0270 h1         1 GB2       0.049700
     28 HO3         -4.4750     3.6840    -3.1320 ho         1 GB2       0.397000
     29 H4          -1.5450     1.7360    -3.1560 h1         1 GB2       0.038700
     30 HO4         -2.7770     0.4080    -4.2740 ho         1 GB2       0.399000
     31 H15          0.4760    -1.3690     2.1070 ha         1 GB2       0.131500
     32 H14          1.3010    -1.3710     4.4310 ha         1 GB2       0.126500
     33 H13          3.2570    -0.0030     5.0470 ha         1 GB2       0.125000
     34 H12          4.3870     1.3700     3.3400 ha         1 GB2       0.126500
     35 H11          3.5650     1.3720     1.0150 ha         1 GB2       0.131500
     36 H91          1.5470    -1.2940    -1.7150 h1         1 GB2       0.025200
     37 H92          3.0590    -1.2050    -0.8020 h1         1 GB2       0.025200
     38 HO9          1.9250    -3.1820    -0.4240 ho         1 GB2       0.405000
@<TRIPOS>BOND
     1     1     2 1
     2     1    16 1
     3     1    17 1
     4     1    19 1
     5     2     3 1
     6     2    20 1
     7     3     4 1
     8     3    21 1
     9     3    22 1
    10     4     5 1
    11     4     9 1
    12     4    23 1
    13     5     6 1
    14     5    24 1
    15     6     7 1
    16     6    25 1
    17     6    26 1
    18     7     8 1
    19     7     9 1
    20     7    27 1
    21     8    28 1
    22     9    10 1
    23     9    29 1
    24    10    30 1
    25    11    12 ar
    26    11    16 ar
    27    11    31 1
    28    12    13 ar
    29    12    32 1
    30    13    14 ar
    31    13    33 1
    32    14    15 ar
    33    14    34 1
    34    15    16 ar
    35    15    35 1
    36    17    18 1
    37    17    36 1
    38    17    37 1
    39    18    38 1
@<TRIPOS>SUBSTRUCTURE
     1 GB2         1 TEMP              0 ****  ****    0 ROOT
