@<TRIPOS>MOLECULE
GB3
   41    42     1     0     0
SMALL
bcc


@<TRIPOS>ATOM
      1 C15          0.0000     0.0000     0.0000 ca         1 GB3      -0.080500
      2 C14          1.3830     0.0000     0.0000 ca         1 GB3      -0.106000
      3 C13          2.0730     0.0000     1.1970 ca         1 GB3      -0.103000
      4 C12          1.3820     0.0050     2.3950 ca         1 GB3      -0.106000
      5 C11         -0.0000     0.0090     2.3940 ca         1 GB3      -0.080500
      6 C10         -0.6910     0.0100     1.1970 ca         1 GB3      -0.079300
      7 C8          -2.1990     0.0150     1.1970 c3         1 GB3       0.161800
      8 C9          -2.7140    -1.4040     0.9490 c3         1 GB3       0.189400
      9 O9          -2.1450    -1.9120    -0.2600 oh         1 GB3      -0.586800
     10 N7          -2.6850     0.9050     0.1350 n7         1 GB3      -0.565200
     11 C6          -4.0270     1.3490     0.5370 c3         1 GB3       0.125800
     12 C5          -4.5960     2.2840    -0.5300 c3         1 GB3       0.111500
     13 N1          -4.6100     1.6140    -1.8490 n7         1 GB3      -0.569200
     14 C2          -5.8270     2.0270    -2.5720 c3         1 GB3       0.110500
     15 C3          -6.6140     2.9770    -1.6460 c3         1 GB3       0.158100
     16 O3          -6.3200     4.3420    -1.9530 oh         1 GB3      -0.548800
     17 C4          -6.0820     2.6040    -0.2340 c3         1 GB3       0.135100
     18 O4          -6.1990     3.7080     0.6670 oh         1 GB3      -0.554800
     19 C21         -5.4420     2.7560    -3.8620 c3         1 GB3       0.018900
     20 H15         -0.5420     0.0000    -0.9380 ha         1 GB3       0.108000
     21 H14          1.9250    -0.0060    -0.9380 ha         1 GB3       0.100000
     22 H13          3.1560    -0.0020     1.1970 ha         1 GB3       0.099000
     23 H12          1.9240     0.0040     3.3330 ha         1 GB3       0.100000
     24 H11         -0.5420     0.0150     3.3320 ha         1 GB3       0.108000
     25 H8          -2.5590     0.3670     2.1560 h1         1 GB3       0.040700
     26 H91         -2.4290    -2.0410     1.7780 h1         1 GB3      -0.008800
     27 H92         -3.7930    -1.3860     0.8610 h1         1 GB3      -0.008800
     28 HO9         -2.4160    -2.8070    -0.3820 ho         1 GB3       0.391000
     29 HN7         -2.7460     0.3970    -0.7250 hn         1 GB3       0.281800
     30 H61         -3.9650     1.8750     1.4820 h1         1 GB3       0.008700
     31 H62         -4.6750     0.4870     0.6450 h1         1 GB3       0.008700
     32 H5          -4.0200     3.2000    -0.5830 h1         1 GB3       0.080700
     33 HN1         -4.6200     0.6220    -1.7180 hn         1 GB3       0.245800
     34 H2          -6.4290     1.1570    -2.8010 h1         1 GB3       0.011700
     35 H3          -7.6770     2.7820    -1.7160 h1         1 GB3       0.000700
     36 HO3         -7.1160     4.8460    -1.9360 ho         1 GB3       0.386000
     37 H4          -6.5930     1.7290     0.1490 h1         1 GB3       0.004700
     38 HO4         -6.8640     3.5220     1.3080 ho         1 GB3       0.381000
     39 H211        -4.7650     3.5690    -3.6290 hc         1 GB3       0.010033
     40 H212        -4.9560     2.0630    -4.5370 hc         1 GB3       0.010033
     41 H213        -6.3340     3.1520    -4.3320 hc         1 GB3       0.010033
@<TRIPOS>BOND
     1     1     2 ar  
     2     1     6 ar  
     3     1    20 1   
     4     2     3 ar  
     5     2    21 1   
     6     3     4 ar  
     7     3    22 1   
     8     4     5 ar  
     9     4    23 1   
    10     5     6 ar  
    11     5    24 1   
    12     6     7 1   
    13     7     8 1   
    14     7    10 1   
    15     7    25 1   
    16     8     9 1   
    17     8    26 1   
    18     8    27 1   
    19     9    28 1   
    20    10    11 1   
    21    10    29 1   
    22    11    12 1   
    23    11    30 1   
    24    11    31 1   
    25    12    13 1   
    26    12    17 1   
    27    12    32 1   
    28    13    14 1   
    29    13    33 1   
    30    14    15 1   
    31    14    19 1   
    32    14    34 1   
    33    15    16 1   
    34    15    17 1   
    35    15    35 1   
    36    16    36 1   
    37    17    18 1   
    38    17    37 1   
    39    18    38 1   
    40    19    39 1   
    41    19    40 1   
    42    19    41 1   
@<TRIPOS>SUBSTRUCTURE
     1 GB3         1 TEMP              0 ****  ****    0 ROOT
