@<TRIPOS>MOLECULE
molecule
   21    21     1     0     0
SMALL
bcc


@<TRIPOS>ATOM
      1 O12          0.0000     0.0000     0.0000 o          1 GB4      -0.555100
      2 C11          1.2270     0.0000     0.0000 c          1 GB4       0.679300
      3 N13          2.0240     0.0000     1.1170 ns         1 GB4      -0.456400
      4 O14          1.3500    -0.0000     2.3460 oh         1 GB4      -0.388100
      5 C10          2.0340     0.0080    -1.2510 ce         1 GB4      -0.236200
      6 C9           1.4270    -0.0060    -2.4570 cf         1 GB4      -0.037200
      7 C1           2.1160    -0.0110    -3.7430 ca         1 GB4      -0.065800
      8 C6           2.4350     1.1660    -4.4200 ca         1 GB4       0.045400
      9 Cl8          2.0370     2.7230    -3.7820 cl         1 GB4      -0.081400
     10 C5           3.0930     1.1070    -5.6480 ca         1 GB4      -0.117000
     11 C2           2.4540    -1.2470    -4.2950 ca         1 GB4      -0.101000
     12 C3           3.1110    -1.3050    -5.5230 ca         1 GB4      -0.121000
     13 C4           3.4310    -0.1290    -6.2000 ca         1 GB4       0.031400
     14 Cl7          4.2470    -0.2010    -7.7130 cl         1 GB4      -0.086400
     15 HN13         2.9630    -0.3400     1.0620 hn         1 GB4       0.326500
     16 HO14         1.8930     0.4060     3.0020 ho         1 GB4       0.404000
     17 H10          3.1160     0.0160    -1.1930 ha         1 GB4       0.134000
     18 H9           0.3440    -0.0220    -2.4800 ha         1 GB4       0.162000
     19 H5           3.3410     2.0210    -6.1740 ha         1 GB4       0.161000
     20 H2           2.2060    -2.1610    -3.7690 ha         1 GB4       0.150000
     21 H3           3.3740    -2.2650    -5.9510 ha         1 GB4       0.151000
@<TRIPOS>BOND
     1     1     2 2
     2     2     5 1
     3     2     3 1
     4     3     4 1
     5     3    15 1
     6     4    16 1
     7     5     6 2
     8     5    17 1
     9     6     7 1
    10     6    18 1
    11     7     8 ar
    12     7    11 ar
    13     8     9 1
    14     8    10 ar
    15    10    13 ar
    16    10    19 1
    17    11    12 ar
    18    11    20 1
    19    12    13 ar
    20    12    21 1
    21    13    14 1
@<TRIPOS>SUBSTRUCTURE
     1 GB4         1 TEMP              0 ****  ****    0 ROOT
