@<TRIPOS>MOLECULE
GB4
   21    23     1     0     0
SMALL
bcc


@<TRIPOS>ATOM
      1 O12          0.0000     0.0000     0.0000 o          1 GB4      -0.382000
      2 C11          1.2270     0.0000     0.0000 c3         1 GB4       0.300000
      3 N13          2.0240     0.0000     1.1170 n7         1 GB4       0.058000
      4 O14          1.3500    -0.0000     2.3460 oh         1 GB4      -0.258000
      5 C10          2.0340     0.0080    -1.2510 c2         1 GB4      -0.146000
      6 C9           1.4270    -0.0060    -2.4570 c2         1 GB4      -0.046000
      7 C1           2.1160    -0.0110    -3.7430 c3         1 GB4       0.027000
      8 C6           2.4350     1.1660    -4.4200 c2         1 GB4      -0.139000
      9 Cl8          2.0370     2.7230    -3.7820 cl         1 GB4       0.102000
     10 C5           3.0930     1.1070    -5.6480 c2         1 GB4      -0.098000
     11 C2           2.4540    -1.2470    -4.2950 c2         1 GB4      -0.056000
     12 C3           3.1110    -1.3050    -5.5230 c2         1 GB4      -0.104000
     13 C4           3.4310    -0.1290    -6.2000 c2         1 GB4      -0.098000
     14 Cl7          4.2470    -0.2010    -7.7130 cl         1 GB4       0.081000
     15 HN13         2.9630    -0.3400     1.0620 hn         1 GB4       0.089000
     16 HO14         1.9320     0.3040     3.0230 ho         1 GB4       0.192000
     17 H10          1.5270     0.8770    -0.8490 DU         1 GB4       0.045000
     18 H9           2.0760     0.7890    -2.8030 DU         1 GB4       0.055000
     19 H5           3.3410     2.0210    -6.1740 ha         1 GB4       0.130000
     20 H2           2.2060    -2.1610    -3.7690 ha         1 GB4       0.127000
     21 H3           3.3740    -2.2650    -5.9510 ha         1 GB4       0.121000
@<TRIPOS>BOND
     1     1     2 1   
     2     2     3 1   
     3     2     5 1   
     4     2    17 1   
     5     3     4 1   
     6     3    15 1   
     7     4    16 1   
     8     5     6 1   
     9     5    17 1   
    10     6     7 1   
    11     6    18 1   
    12     7     8 1   
    13     7    11 1   
    14     7    18 1   
    15     8     9 1   
    16     8    10 1   
    17    10    13 1   
    18    10    19 1   
    19    11    12 1   
    20    11    20 1   
    21    12    13 1   
    22    12    21 1   
    23    13    14 1   
@<TRIPOS>SUBSTRUCTURE
     1 GB4         1 TEMP              0 ****  ****    0 ROOT
