@<TRIPOS>MOLECULE
molecule
   21    21     1     0     0
SMALL
bcc


@<TRIPOS>ATOM
      1 O12          0.0000     0.0000     0.0000 o          1 GB5      -0.559100
      2 C11          1.2270     0.0000     0.0000 c          1 GB5       0.681300
      3 N13          2.0240     0.0000     1.1160 ns         1 GB5      -0.457400
      4 O14          1.3520    -0.0010     2.3470 oh         1 GB5      -0.388100
      5 C10          2.0330     0.0090    -1.2510 ce         1 GB5      -0.255200
      6 C9           1.4280    -0.0040    -2.4610 cf         1 GB5      -0.026200
      7 C1           2.1140    -0.0080    -3.7440 ca         1 GB5      -0.077800
      8 C2           3.4400     0.4140    -3.8260 ca         1 GB5      -0.097500
      9 C3           4.0980     0.4080    -5.0560 ca         1 GB5      -0.125500
     10 C4           3.4300    -0.0190    -6.2030 ca         1 GB5       0.033400
     11 Cl1          4.2420    -0.0260    -7.7200 cl         1 GB5      -0.094400
     12 C5           2.1030    -0.4410    -6.1200 ca         1 GB5      -0.125500
     13 C6           1.4450    -0.4360    -4.8900 ca         1 GB5      -0.097500
     14 HN13         2.9640    -0.3380     1.0590 hn         1 GB5       0.325500
     15 HO14         1.8950     0.4050     3.0020 ho         1 GB5       0.403000
     16 H10          3.1150     0.0160    -1.1920 ha         1 GB5       0.129000
     17 H9           0.3450    -0.0200    -2.4850 ha         1 GB5       0.151000
     18 H2           3.9590     0.7460    -2.9350 ha         1 GB5       0.142000
     19 H3           5.1290     0.7360    -5.1200 ha         1 GB5       0.148000
     20 H5           1.5840    -0.7730    -7.0110 ha         1 GB5       0.148000
     21 H6           0.4140    -0.7640    -4.8260 ha         1 GB5       0.142000
@<TRIPOS>BOND
     1     1     2 2
     2     2     5 1
     3     2     3 1
     4     3     4 1
     5     3    14 1
     6     4    15 1
     7     5     6 2
     8     5    16 1
     9     6     7 1
    10     6    17 1
    11     7    13 ar
    12     7     8 ar
    13     8     9 ar
    14     8    18 1
    15     9    10 ar
    16     9    19 1
    17    10    12 ar
    18    10    11 1
    19    12    13 ar
    20    12    20 1
    21    13    21 1
@<TRIPOS>SUBSTRUCTURE
     1 GB5         1 TEMP              0 ****  ****    0 ROOT
