@<TRIPOS>MOLECULE
GB5
   21    23     1     0     0
SMALL
bcc


@<TRIPOS>ATOM
      1 O12          0.0000     0.0000     0.0000 o          1 GB5      -0.377000
      2 C11          1.2270     0.0000     0.0000 c3         1 GB5       0.297000
      3 N13          2.0240     0.0000     1.1160 n7         1 GB5       0.061000
      4 O14          1.3520    -0.0010     2.3470 oh         1 GB5      -0.257000
      5 C10          2.0330     0.0090    -1.2510 c2         1 GB5      -0.142000
      6 C9           1.4280    -0.0040    -2.4610 c2         1 GB5      -0.033000
      7 C1           2.1140    -0.0080    -3.7440 c3         1 GB5       0.051000
      8 C2           3.4400     0.4140    -3.8260 c2         1 GB5      -0.139000
      9 C3           4.0980     0.4080    -5.0560 c2         1 GB5      -0.067000
     10 C4           3.4300    -0.0190    -6.2030 c2         1 GB5      -0.143000
     11 Cl1          4.2420    -0.0260    -7.7200 cl         1 GB5       0.065000
     12 C5           2.1030    -0.4410    -6.1200 c2         1 GB5      -0.067000
     13 C6           1.4450    -0.4360    -4.8900 c2         1 GB5      -0.139000
     14 HN13         2.9640    -0.3380     1.0590 hn         1 GB5       0.090000
     15 HO14         1.9340     0.3020     3.0230 ho         1 GB5       0.194000
     16 H10          1.5200     0.8750    -0.8530 DU         1 GB5       0.047000
     17 H9           2.0860     0.7860    -2.8020 DU         1 GB5       0.079000
     18 H2           3.9590     0.7460    -2.9350 ha         1 GB5       0.124000
     19 H3           5.1290     0.7360    -5.1200 ha         1 GB5       0.116500
     20 H5           1.5840    -0.7730    -7.0110 ha         1 GB5       0.116500
     21 H6           0.4140    -0.7640    -4.8260 ha         1 GB5       0.124000
@<TRIPOS>BOND
     1     1     2 1   
     2     2     3 1   
     3     2     5 1   
     4     2    16 1   
     5     3     4 1   
     6     3    14 1   
     7     4    15 1   
     8     5     6 1   
     9     5    16 1   
    10     6     7 1   
    11     6    17 1   
    12     7     8 1   
    13     7    13 1   
    14     7    17 1   
    15     8     9 1   
    16     8    18 1   
    17     9    10 1   
    18     9    19 1   
    19    10    11 1   
    20    10    12 1   
    21    12    13 1   
    22    12    20 1   
    23    13    21 1   
@<TRIPOS>SUBSTRUCTURE
     1 GB5         1 TEMP              0 ****  ****    0 ROOT
