@<TRIPOS>MOLECULE
molecule
   37    38     1     0     0
SMALL
bcc


@<TRIPOS>ATOM
      1 C15          0.0000     0.0000     0.0000 ca         1 GB6      -0.106000
      2 C14          1.3830     0.0000     0.0000 ca         1 GB6      -0.133500
      3 C13          2.0730     0.0000     1.1970 ca         1 GB6      -0.123000
      4 C12          1.3830    -0.0000     2.3940 ca         1 GB6      -0.133500
      5 C11         -0.0000     0.0010     2.3940 ca         1 GB6      -0.106000
      6 C10         -0.6910    -0.0000     1.1970 ca         1 GB6      -0.100300
      7 C8          -2.1980    -0.0000     1.1970 c3         1 GB6       0.218800
      8 C9          -2.7080     1.4200     1.4480 c3         1 GB6       0.157400
      9 O9          -2.1380     1.9250     2.6580 oh         1 GB6      -0.592800
     10 N7          -2.6890    -0.8910     2.2580 n7         1 GB6      -0.802200
     11 C6          -4.0360    -1.3870     1.9480 c3         1 GB6       0.136800
     12 C5          -4.5110    -2.3090     3.0730 c3         1 GB6       0.085700
     13 N1          -4.4690    -1.6030     4.3590 ns         1 GB6      -0.559900
     14 C2          -5.6940    -1.1990     4.7350 c          1 GB6       0.696500
     15 O2          -5.9430    -0.5870     5.7520 o          1 GB6      -0.616500
     16 C3          -6.7190    -1.6170     3.7030 c3         1 GB6       0.053100
     17 O3          -7.8700    -2.1740     4.3390 oh         1 GB6      -0.555800
     18 C4          -5.9920    -2.6910     2.8610 c3         1 GB6       0.130100
     19 O4          -6.2590    -4.0020     3.3620 oh         1 GB6      -0.562800
     20 H15         -0.5420    -0.0000    -0.9380 ha         1 GB6       0.140500
     21 H14          1.9240     0.0000    -0.9380 ha         1 GB6       0.130500
     22 H13          3.1570    -0.0000     1.1970 ha         1 GB6       0.128000
     23 H12          1.9250     0.0000     3.3320 ha         1 GB6       0.130500
     24 H11         -0.5420     0.0010     3.3330 ha         1 GB6       0.140500
     25 H8          -2.5590    -0.3490     0.2370 h1         1 GB6       0.034700
     26 H9          -2.4210     2.0580     0.6210 h1         1 GB6       0.021200
     27 H9A         -3.7870     1.4060     1.5350 h1         1 GB6       0.021200
     28 HO9         -2.4650     2.7940     2.8210 ho         1 GB6       0.399000
     29 HN7         -2.0630    -1.6650     2.3590 hn         1 GB6       0.361800
     30 H6          -4.0120    -1.9380     1.0160 h1         1 GB6       0.035700
     31 H6A         -4.7160    -0.5500     1.8550 h1         1 GB6       0.035700
     32 H5          -3.8990    -3.2010     3.1170 h1         1 GB6       0.072700
     33 HN1         -3.6350    -1.4440     4.8900 hn         1 GB6       0.352500
     34 H3          -6.9940    -0.7730     3.0820 h1         1 GB6       0.059700
     35 HO3         -8.6100    -1.6060     4.2030 ho         1 GB6       0.404000
     36 H4          -6.2640    -2.6070     1.8150 h1         1 GB6       0.045700
     37 HO4         -6.5160    -4.5650     2.6510 ho         1 GB6       0.403000
@<TRIPOS>BOND
     1     1     2 ar
     2     1     6 ar
     3     2     3 ar
     4     3     4 ar
     5     4     5 ar
     6     5     6 ar
     7     6     7 1
     8     7     8 1
     9     7    10 1
    10     8     9 1
    11    10    11 1
    12    11    12 1
    13    12    13 1
    14    12    18 1
    15    13    14 1
    16    14    15 2
    17    14    16 1
    18    16    17 1
    19    16    18 1
    20    18    19 1
    21     1    20 1
    22     2    21 1
    23     3    22 1
    24     4    23 1
    25     5    24 1
    26     7    25 1
    27     8    26 1
    28     8    27 1
    29     9    28 1
    30    10    29 1
    31    11    30 1
    32    11    31 1
    33    12    32 1
    34    13    33 1
    35    16    34 1
    36    17    35 1
    37    18    36 1
    38    19    37 1
@<TRIPOS>SUBSTRUCTURE
     1 GB6         1 TEMP              0 ****  ****    0 ROOT
