@<TRIPOS>MOLECULE
GB7
   40    41     1     0     0
SMALL
bcc


@<TRIPOS>ATOM
      1 C11          0.0000     0.0000     0.0000 ca         1 GB7      -0.082500
      2 C12          1.3820     0.0000     0.0000 ca         1 GB7      -0.105500
      3 C13          2.0730     0.0000     1.1970 ca         1 GB7      -0.097000
      4 C14          1.3810     0.0000     2.3950 ca         1 GB7      -0.105500
      5 C15         -0.0010     0.0020     2.3940 ca         1 GB7      -0.082500
      6 C10         -0.6920     0.0010     1.1970 ca         1 GB7      -0.107300
      7 C8          -2.1990     0.0010     1.1960 c3         1 GB7       0.173800
      8 C9          -2.7080     1.4230     1.4460 c3         1 GB7       0.232400
      9 O9          -2.1390     1.9260     2.6560 oh         1 GB7      -0.576800
     10 N7          -2.6900    -0.8890     2.2570 n7         1 GB7      -0.573200
     11 C6          -4.0370    -1.3840     1.9460 c3         1 GB7       0.120800
     12 C5          -4.5140    -2.3050     3.0710 c3         1 GB7      -0.004300
     13 N1          -4.4720    -1.6000     4.3580 n          1 GB7      -0.132800
     14 C1          -3.2510    -1.3670     5.1330 c3         1 GB7       0.109300
     15 C2          -5.6970    -1.1950     4.7320 c          1 GB7       0.614500
     16 O2          -5.9460    -0.5830     5.7500 o          1 GB7      -0.658500
     17 C3          -6.7210    -1.6120     3.7000 c3         1 GB7       0.092100
     18 O3          -7.8740    -2.1700     4.3360 oh         1 GB7      -0.537800
     19 C4          -5.9950    -2.6880     2.8580 c3         1 GB7       0.172100
     20 O4          -6.2620    -3.9970     3.3610 oh         1 GB7      -0.544800
     21 H11         -0.5410    -0.0010    -0.9380 ha         1 GB7       0.114500
     22 H12          1.9230    -0.0010    -0.9380 ha         1 GB7       0.103000
     23 H13          3.1560    -0.0010     1.1980 ha         1 GB7       0.102000
     24 H14          1.9230     0.0010     3.3330 ha         1 GB7       0.103000
     25 H15         -0.5430     0.0030     3.3320 ha         1 GB7       0.114500
     26 H8          -2.5600    -0.3480     0.2360 h1         1 GB7       0.015700
     27 H9          -3.7880     1.4100     1.5330 h1         1 GB7      -0.013300
     28 H9A         -2.4200     2.0600     0.6190 h1         1 GB7      -0.013300
     29 HO9         -2.4430     2.8070     2.8040 ho         1 GB7       0.386000
     30 HN7         -2.0650    -1.6640     2.3570 hn         1 GB7       0.264800
     31 H6          -4.0140    -1.9350     1.0140 h1         1 GB7       0.013200
     32 H6A         -4.7170    -0.5460     1.8530 h1         1 GB7       0.013200
     33 H5          -3.9020    -3.1980     3.1160 h1         1 GB7       0.044700
     34 H1          -3.4400    -1.5810     6.1780 h1         1 GB7       0.013033
     35 H1A         -2.9470    -0.3330     5.0250 h1         1 GB7       0.013033
     36 H1B         -2.4630    -2.0150     4.7690 h1         1 GB7       0.013033
     37 H3          -6.9950    -0.7690     3.0780 h1         1 GB7       0.020700
     38 HO3         -8.6070    -1.5890     4.2240 ho         1 GB7       0.387000
     39 H4          -6.2670    -2.6040     1.8130 h1         1 GB7       0.010700
     40 HO4         -6.4750    -4.5720     2.6440 ho         1 GB7       0.387000
@<TRIPOS>BOND
     1     1     2 ar  
     2     1     6 ar  
     3     1    21 1   
     4     2     3 ar  
     5     2    22 1   
     6     3     4 ar  
     7     3    23 1   
     8     4     5 ar  
     9     4    24 1   
    10     5     6 ar  
    11     5    25 1   
    12     6     7 1   
    13     7     8 1   
    14     7    10 1   
    15     7    26 1   
    16     8     9 1   
    17     8    27 1   
    18     8    28 1   
    19     9    29 1   
    20    10    11 1   
    21    10    30 1   
    22    11    12 1   
    23    11    31 1   
    24    11    32 1   
    25    12    13 1   
    26    12    19 1   
    27    12    33 1   
    28    13    14 1   
    29    13    15 1   
    30    14    34 1   
    31    14    35 1   
    32    14    36 1   
    33    15    16 2   
    34    15    17 1   
    35    17    18 1   
    36    17    19 1   
    37    17    37 1   
    38    18    38 1   
    39    19    20 1   
    40    19    39 1   
    41    20    40 1   
@<TRIPOS>SUBSTRUCTURE
     1 GB7         1 TEMP              0 ****  ****    0 ROOT
