@<TRIPOS>MOLECULE
molecule
   40    41     1     0     0
SMALL
bcc


@<TRIPOS>ATOM
      1 C11          0.0000     0.0000     0.0000 ca         1 GB7      -0.107000
      2 C12          1.3820     0.0000     0.0000 ca         1 GB7      -0.134000
      3 C13          2.0730     0.0000     1.1970 ca         1 GB7      -0.123000
      4 C14          1.3810     0.0000     2.3950 ca         1 GB7      -0.134000
      5 C15         -0.0010     0.0020     2.3940 ca         1 GB7      -0.107000
      6 C10         -0.6920     0.0010     1.1970 ca         1 GB7      -0.100300
      7 C8          -2.1990     0.0010     1.1960 c3         1 GB7       0.217800
      8 C9          -2.7080     1.4230     1.4460 c3         1 GB7       0.157400
      9 O9          -2.1390     1.9260     2.6560 oh         1 GB7      -0.592800
     10 N7          -2.6900    -0.8890     2.2570 n7         1 GB7      -0.799200
     11 C6          -4.0370    -1.3840     1.9460 c3         1 GB7       0.137800
     12 C5          -4.5140    -2.3050     3.0710 c3         1 GB7       0.085700
     13 N1          -4.4720    -1.6000     4.3580 n          1 GB7      -0.469800
     14 C1          -3.2510    -1.3670     5.1330 c3         1 GB7       0.127300
     15 C2          -5.6970    -1.1950     4.7320 c          1 GB7       0.694500
     16 O2          -5.9460    -0.5830     5.7500 o          1 GB7      -0.617500
     17 C3          -6.7210    -1.6120     3.7000 c3         1 GB7       0.055100
     18 O3          -7.8740    -2.1700     4.3360 oh         1 GB7      -0.556800
     19 C4          -5.9950    -2.6880     2.8580 c3         1 GB7       0.131100
     20 O4          -6.2620    -3.9970     3.3610 oh         1 GB7      -0.561800
     21 H11         -0.5410    -0.0010    -0.9380 ha         1 GB7       0.140000
     22 H12          1.9230    -0.0010    -0.9380 ha         1 GB7       0.130500
     23 H13          3.1560    -0.0010     1.1980 ha         1 GB7       0.129000
     24 H14          1.9230     0.0010     3.3330 ha         1 GB7       0.130500
     25 H15         -0.5430     0.0030     3.3320 ha         1 GB7       0.140000
     26 H8          -2.5600    -0.3480     0.2360 h1         1 GB7       0.034700
     27 H9          -3.7880     1.4100     1.5330 h1         1 GB7       0.021700
     28 H9A         -2.4200     2.0600     0.6190 h1         1 GB7       0.021700
     29 HO9         -2.4430     2.8070     2.8040 ho         1 GB7       0.399000
     30 HN7         -2.0650    -1.6640     2.3570 hn         1 GB7       0.361800
     31 H6          -4.0140    -1.9350     1.0140 h1         1 GB7       0.035700
     32 H6A         -4.7170    -0.5460     1.8530 h1         1 GB7       0.035700
     33 H5          -3.9020    -3.1980     3.1160 h1         1 GB7       0.072700
     34 H1          -3.4400    -1.5810     6.1780 h1         1 GB7       0.045033
     35 H1A         -2.9470    -0.3330     5.0250 h1         1 GB7       0.045033
     36 H1B         -2.4630    -2.0150     4.7690 h1         1 GB7       0.045033
     37 H3          -6.9950    -0.7690     3.0780 h1         1 GB7       0.058700
     38 HO3         -8.6070    -1.5890     4.2240 ho         1 GB7       0.403000
     39 H4          -6.2670    -2.6040     1.8130 h1         1 GB7       0.044700
     40 HO4         -6.4750    -4.5720     2.6440 ho         1 GB7       0.402000
@<TRIPOS>BOND
     1     1     2 ar
     2     1     6 ar
     3     2     3 ar
     4     3     4 ar
     5     4     5 ar
     6     5     6 ar
     7     6     7 1
     8     7     8 1
     9     7    10 1
    10     8     9 1
    11    10    11 1
    12    11    12 1
    13    12    13 1
    14    12    19 1
    15    13    14 1
    16    13    15 1
    17    15    16 2
    18    15    17 1
    19    17    18 1
    20    17    19 1
    21    19    20 1
    22     1    21 1
    23     2    22 1
    24     3    23 1
    25     4    24 1
    26     5    25 1
    27     7    26 1
    28     8    27 1
    29     8    28 1
    30     9    29 1
    31    10    30 1
    32    11    31 1
    33    11    32 1
    34    12    33 1
    35    14    34 1
    36    14    35 1
    37    14    36 1
    38    17    37 1
    39    18    38 1
    40    19    39 1
    41    20    40 1
@<TRIPOS>SUBSTRUCTURE
     1 GB7         1 TEMP              0 ****  ****    0 ROOT
