@<TRIPOS>MOLECULE
molecule
   52    56     1     0     0
SMALL
bcc


@<TRIPOS>ATOM
      1 C            0.0000     0.0000     0.0000 c3         1 GB8       0.261800
      2 N           -0.5100    -0.4840    -1.2850 na         1 GB8      -0.275000
      3 O            1.4440     0.0000     0.0000 os         1 GB8      -0.369600
      4 C1          -0.3960    -0.9700     1.1360 c3         1 GB8       0.095100
      5 N1          -1.7250    -0.6320    -3.1010 nc         1 GB8      -0.658100
      6 C2           0.8330    -0.9700     2.0730 c3         1 GB8       0.085100
      7 N2           0.9320    -2.4530    -1.8070 nb         1 GB8      -0.780000
      8 O2           0.4730    -0.4900     3.3710 oh         1 GB8      -0.579800
      9 C3           1.8240     0.0000     1.3940 c3         1 GB8       0.125100
     10 N3           0.4360    -3.5200    -3.7980 nb         1 GB8      -0.827000
     11 O3          -1.5510    -0.4900     1.8250 oh         1 GB8      -0.582800
     12 C4           3.2590    -0.5060     1.5540 c3         1 GB8       0.148400
     13 C5          -1.5410     0.0570    -2.0020 cd         1 GB8       0.677700
     14 N5          -2.2780     1.1620    -1.6250 nu         1 GB8      -0.876200
     15 C6          -0.8260    -1.6470    -3.1530 ca         1 GB8      -0.176200
     16 N6          -5.7790     6.1250    -0.0920 nb         1 GB8      -0.681000
     17 C7          -0.0360    -1.5630    -1.9940 ca         1 GB8       0.472800
     18 C8           1.1510    -3.4020    -2.6940 ca         1 GB8       0.719900
     19 C9          -0.5560    -2.6780    -4.0660 ca         1 GB8       0.770200
     20 C10         -3.3610     1.6480    -2.4830 c3         1 GB8       0.306100
     21 C11         -4.0010     2.8560    -1.8480 ca         1 GB8      -0.121300
     22 C12         -3.5210     4.0970    -2.1340 ca         1 GB8      -0.087000
     23 C13         -4.1160     5.2240    -1.5430 ca         1 GB8      -0.162300
     24 C14         -5.2090     5.0550    -0.6570 ca         1 GB8       0.424600
     25 C15         -5.6760     3.7570    -0.3880 ca         1 GB8      -0.164300
     26 C16         -5.0760     2.6870    -0.9780 ca         1 GB8      -0.107000
     27 C17         -5.3470     7.3370    -0.3390 ca         1 GB8       0.437200
     28 C18         -4.2780     7.5730    -1.2000 ca         1 GB8      -0.258300
     29 C19         -3.6500     6.5240    -1.8110 ca         1 GB8      -0.074000
     30 H           -0.3740     0.9950     0.2090 h2         1 GB8       0.084700
     31 H1          -0.5680    -1.9630     0.7410 h1         1 GB8       0.071700
     32 HO1          5.0310     0.2860     1.2980 ho         1 GB8       0.403000
     33 H2           1.2600    -1.9640     2.1350 h1         1 GB8       0.055700
     34 HO2          0.7430    -1.1150     4.0240 ho         1 GB8       0.402000
     35 H3           1.7210     0.9950     1.8100 h1         1 GB8       0.080700
     36 HO3         -1.9950    -1.2130     2.2360 ho         1 GB8       0.412000
     37 H4           3.3590    -1.4690     1.0680 h1         1 GB8       0.034200
     38 H4A          3.4900    -0.6080     2.6080 h1         1 GB8       0.034200
     39 HN4         -2.0450    -2.1680    -5.4200 hn         1 GB8       0.447300
     40 HN4A        -1.0980    -3.5480    -5.8720 hn         1 GB8       0.447300
     41 HN5         -2.0710     1.6310    -0.7650 hn         1 GB8       0.455800
     42 H8           1.9520    -4.1100    -2.5130 h5         1 GB8       0.057100
     43 H10         -4.1030     0.8690    -2.6040 h1         1 GB8       0.057200
     44 H10A        -2.9600     1.9200    -3.4520 h1         1 GB8       0.057200
     45 H12         -2.7690     4.2230    -2.9040 ha         1 GB8       0.141000
     46 H15         -6.5110     3.6080     0.2860 ha         1 GB8       0.152000
     47 H16         -5.4400     1.6880    -0.7680 ha         1 GB8       0.140000
     48 H17         -5.8350     8.1780     0.1380 h4         1 GB8       0.024100
     49 H18         -3.9440     8.5870    -1.3850 ha         1 GB8       0.139000
     50 H19         -2.8170     6.6890    -2.4830 ha         1 GB8       0.142000
     51 O1           4.1630     0.4260     0.9570 oh         1 GB8      -0.594800
     52 N4          -1.3020    -2.8100    -5.2270 nv         1 GB8      -0.991500
@<TRIPOS>BOND
     1     1     2 1
     2     1     3 1
     3     1     4 1
     4     2    13 1
     5     2    17 1
     6     3     9 1
     7     4     6 1
     8     4    11 1
     9     5    13 2
    10     5    15 1
    11    51    12 1
    12     6     8 1
    13     6     9 1
    14     7    17 ar
    15     7    18 ar
    16     9    12 1
    17    10    18 ar
    18    10    19 ar
    19    52    19 1
    20    13    14 1
    21    14    20 1
    22    15    17 ar
    23    15    19 ar
    24    16    24 ar
    25    16    27 ar
    26    20    21 1
    27    21    22 ar
    28    21    26 ar
    29    22    23 ar
    30    23    24 ar
    31    23    29 ar
    32    24    25 ar
    33    25    26 ar
    34    27    28 ar
    35    28    29 ar
    36     1    30 1
    37     4    31 1
    38    51    32 1
    39     6    33 1
    40     8    34 1
    41     9    35 1
    42    11    36 1
    43    12    37 1
    44    12    38 1
    45    52    39 1
    46    52    40 1
    47    14    41 1
    48    18    42 1
    49    20    43 1
    50    20    44 1
    51    22    45 1
    52    25    46 1
    53    26    47 1
    54    27    48 1
    55    28    49 1
    56    29    50 1
@<TRIPOS>SUBSTRUCTURE
     1 GB8         1 TEMP              0 ****  ****    0 ROOT
