@<TRIPOS>MOLECULE
GB8
   52    56     1     0     0
SMALL
bcc


@<TRIPOS>ATOM
      1 C            0.0000     0.0000     0.0000 c3         1 GB8       0.153800
      2 N           -0.5100    -0.4840    -1.2850 na         1 GB8       0.175000
      3 O            1.4440     0.0000     0.0000 os         1 GB8      -0.357600
      4 C1          -0.3960    -0.9700     1.1360 c3         1 GB8       0.127100
      5 N1          -1.7250    -0.6320    -3.1010 nc         1 GB8      -0.585100
      6 C2           0.8330    -0.9700     2.0730 c3         1 GB8       0.128100
      7 N2           0.9320    -2.4530    -1.8070 nb         1 GB8      -0.665000
      8 O2           0.4730    -0.4900     3.3710 oh         1 GB8      -0.557800
      9 C3           1.8240     0.0000     1.3940 c3         1 GB8       0.151100
     10 N3           0.4360    -3.5200    -3.7980 nb         1 GB8      -0.734000
     11 O3          -1.5510    -0.4900     1.8250 oh         1 GB8      -0.562800
     12 C4           3.2590    -0.5060     1.5540 c3         1 GB8       0.224400
     13 C5          -1.5410     0.0570    -2.0020 cd         1 GB8       0.349700
     14 N5          -2.2780     1.1620    -1.6250 nu         1 GB8      -0.470200
     15 C6          -0.8260    -1.6470    -3.1530 ca         1 GB8      -0.202200
     16 N6          -5.7790     6.1250    -0.0920 nb         1 GB8      -0.569000
     17 C7          -0.0360    -1.5630    -1.9940 ca         1 GB8       0.271800
     18 C8           1.1510    -3.4020    -2.6940 ca         1 GB8       0.666900
     19 C9          -0.5560    -2.6780    -4.0660 ca         1 GB8       0.574200
     20 C10         -3.3610     1.6480    -2.4830 c3         1 GB8       0.241100
     21 C11         -4.0010     2.8560    -1.8480 ca         1 GB8      -0.122300
     22 C12         -3.5210     4.0970    -2.1340 ca         1 GB8      -0.062000
     23 C13         -4.1160     5.2240    -1.5430 ca         1 GB8      -0.154300
     24 C14         -5.2090     5.0550    -0.6570 ca         1 GB8       0.377600
     25 C15         -5.6760     3.7570    -0.3880 ca         1 GB8      -0.138300
     26 C16         -5.0760     2.6870    -0.9780 ca         1 GB8      -0.081000
     27 C17         -5.3470     7.3370    -0.3390 ca         1 GB8       0.415200
     28 C18         -4.2780     7.5730    -1.2000 ca         1 GB8      -0.224300
     29 C19         -3.6500     6.5240    -1.8110 ca         1 GB8      -0.050000
     30 H           -0.3740     0.9950     0.2090 h2         1 GB8       0.046700
     31 H1          -0.5680    -1.9630     0.7410 h1         1 GB8       0.033700
     32 HO1          5.0310     0.2860     1.2980 ho         1 GB8       0.389000
     33 H2           1.2600    -1.9640     2.1350 h1         1 GB8       0.020700
     34 HO2          0.7430    -1.1150     4.0240 ho         1 GB8       0.387000
     35 H3           1.7210     0.9950     1.8100 h1         1 GB8       0.044700
     36 HO3         -1.9950    -1.2130     2.2360 ho         1 GB8       0.398000
     37 H4           3.3590    -1.4690     1.0680 h1         1 GB8      -0.003800
     38 H4A          3.4900    -0.6080     2.6080 h1         1 GB8      -0.003800
     39 HN4         -2.0450    -2.1680    -5.4200 hn         1 GB8       0.274300
     40 HN4A        -1.0980    -3.5480    -5.8720 hn         1 GB8       0.274300
     41 HN5         -2.0710     1.6310    -0.7650 hn         1 GB8       0.301800
     42 H8           1.9520    -4.1100    -2.5130 h5         1 GB8      -0.007900
     43 H10         -4.1030     0.8690    -2.6040 h1         1 GB8       0.026200
     44 H10A        -2.9600     1.9200    -3.4520 h1         1 GB8       0.026200
     45 H12         -2.7690     4.2230    -2.9040 ha         1 GB8       0.114000
     46 H15         -6.5110     3.6080     0.2860 ha         1 GB8       0.120000
     47 H16         -5.4400     1.6880    -0.7680 ha         1 GB8       0.110000
     48 H17         -5.8350     8.1780     0.1380 h4         1 GB8      -0.021900
     49 H18         -3.9440     8.5870    -1.3850 ha         1 GB8       0.113000
     50 H19         -2.8170     6.6890    -2.4830 ha         1 GB8       0.112000
     51 O1           4.1630     0.4260     0.9570 oh         1 GB8      -0.578800
     52 N4          -1.3020    -2.8100    -5.2270 nv         1 GB8      -0.495500
@<TRIPOS>BOND
     1     1     2 1   
     2     1     3 1   
     3     1     4 1   
     4     1    30 1   
     5     2    13 1   
     6     2    17 1   
     7     3     9 1   
     8     4     6 1   
     9     4    11 1   
    10     4    31 1   
    11     5    13 2   
    12     5    15 1   
    13     6     8 1   
    14     6     9 1   
    15     6    33 1   
    16     7    17 ar  
    17     7    18 ar  
    18     8    34 1   
    19     9    12 1   
    20     9    35 1   
    21    10    18 ar  
    22    10    19 ar  
    23    11    36 1   
    24    12    37 1   
    25    12    38 1   
    26    12    51 1   
    27    13    14 1   
    28    14    20 1   
    29    14    41 1   
    30    15    17 ar  
    31    15    19 ar  
    32    16    24 ar  
    33    16    27 ar  
    34    18    42 1   
    35    19    52 1   
    36    20    21 1   
    37    20    43 1   
    38    20    44 1   
    39    21    22 ar  
    40    21    26 ar  
    41    22    23 ar  
    42    22    45 1   
    43    23    24 ar  
    44    23    29 ar  
    45    24    25 ar  
    46    25    26 ar  
    47    25    46 1   
    48    26    47 1   
    49    27    28 ar  
    50    27    48 1   
    51    28    29 ar  
    52    28    49 1   
    53    29    50 1   
    54    32    51 1   
    55    39    52 1   
    56    40    52 1   
@<TRIPOS>SUBSTRUCTURE
     1 GB8         1 TEMP              0 ****  ****    0 ROOT
