@<TRIPOS>MOLECULE
GBC
   21    21     1     0     0
SMALL
bcc


@<TRIPOS>ATOM
      1 C1           0.0000     0.0000     0.0000 ce         1 GBC       0.002600
      2 C2           1.3140     0.0000     0.0000 c2         1 GBC      -0.357200
      3 C3           2.1510     0.0000     1.2460 c3         1 GBC       0.004700
      4 C4           1.3060    -0.4280     2.4450 c3         1 GBC      -0.034400
      5 C5           0.0150     0.4000     2.4520 c3         1 GBC      -0.018400
      6 C6          -0.8330    -0.0130     1.2490 c3         1 GBC       0.007800
      7 C7          -0.6940     0.0130    -1.2950 c          1 GBC       0.938800
      8 N3           3.2700    -0.9360     1.0790 nz         1 GBC       0.064400
      9 O1          -2.0410     0.0110    -1.3380 o          1 GBC      -0.843300
     10 O2          -0.0540     0.0230    -2.3270 o          1 GBC      -0.843300
     11 H2           1.8230     0.0010    -0.9560 ha         1 GBC       0.157000
     12 H3           2.5350     0.9980     1.4180 hx         1 GBC       0.073700
     13 H41          1.0620    -1.4800     2.3600 hc         1 GBC       0.018700
     14 H42          1.8570    -0.2480     3.3600 hc         1 GBC       0.018700
     15 H51         -0.5330     0.2090     3.3660 hc         1 GBC       0.025200
     16 H52          0.2590     1.4530     2.3790 hc         1 GBC       0.025200
     17 H61         -1.6560     0.6810     1.1370 hc         1 GBC       0.056200
     18 H62         -1.2190    -1.0120     1.4110 hc         1 GBC       0.056200
     19 HN31         3.8720    -0.6100     0.3490 hn         1 GBC       0.215467
     20 HN32         3.7860    -0.9950     1.9350 hn         1 GBC       0.215467
     21 H33          2.9160    -1.8410     0.8410 hn         1 GBC       0.215467
@<TRIPOS>BOND
     1     1     2 2   
     2     1     6 1   
     3     1     7 1   
     4     2     3 1   
     5     2    11 1   
     6     3     4 1   
     7     3     8 1   
     8     3    12 1   
     9     4     5 1   
    10     4    13 1   
    11     4    14 1   
    12     5     6 1   
    13     5    15 1   
    14     5    16 1   
    15     6    17 1   
    16     6    18 1   
    17     7     9 1   
    18     7    10 1   
    19     8    19 1   
    20     8    20 1   
    21     8    21 1   
@<TRIPOS>SUBSTRUCTURE
     1 GBC         1 TEMP              0 ****  ****    0 ROOT
