@<TRIPOS>MOLECULE
molecule
   10    10     1     0     0
SMALL
bcc


@<TRIPOS>ATOM
      1 O13          0.0000     0.0000     0.0000 o          1 GBD      -0.801300
      2 C1           1.3470     0.0000     0.0000 c          1 GBD       0.797100
      3 O11          1.9540     0.0000     1.0510 o          1 GBD      -0.801300
      4 C3           2.0840     0.0010    -1.2770 cc         1 GBD       0.206500
      5 N2           1.4570     0.0020    -2.4380 nd         1 GBD      -0.434100
      6 S1           2.5960     0.0020    -3.5260 ss         1 GBD       0.271200
      7 C4           3.4760     0.0060    -1.3170 cc         1 GBD       0.509300
      8 O4           4.2470     0.0070    -0.2000 oh         1 GBD      -0.534300
      9 N5           3.9800     0.0010    -2.5330 nd         1 GBD      -0.622100
     10 HO4          5.1570     0.0300    -0.4460 ho         1 GBD       0.408000
@<TRIPOS>BOND
     1     1     2 1
     2     2     3 1
     3     2     4 1
     4     4     5 2
     5     4     7 1
     6     5     6 1
     7     6     9 1
     8     7     8 1
     9     7     9 2
    10     8    10 1
@<TRIPOS>SUBSTRUCTURE
     1 GBD         1 TEMP              0 ****  ****    0 ROOT
