@<TRIPOS>MOLECULE
GBD
   10    10     1     0     0
SMALL
bcc


@<TRIPOS>ATOM
      1 O13         0.6660    0.7760    0.4010 o         1 GBD     -0.780300
      2 C1          1.2980   -0.2630    0.1080 c         1 GBD      0.860100
      3 O11         1.4160   -1.3170    0.7710 o         1 GBD     -0.780300
      4 C3          2.0430   -0.2370   -1.2560 cc        1 GBD      0.259500
      5 N2          1.5610   -0.6130   -2.4080 nd        1 GBD     -0.457100
      6 S1          2.7580   -0.3900   -3.5730 ss        1 GBD      0.173200
      7 C4          3.4640    0.2510   -1.3710 cc        1 GBD      0.472300
      8 O4          4.1140    0.6810   -0.2530 oh        1 GBD     -0.560300
      9 N5          3.9670    0.2130   -2.6010 nd        1 GBD     -0.602100
     10 HO4         5.0110    0.9570   -0.5050 ho        1 GBD      0.415000
@<TRIPOS>BOND
     1    1    2 1   
     2    2    3 1   
     3    2    4 1   
     4    4    5 2   
     5    4    7 1   
     6    5    6 1   
     7    6    9 1   
     8    7    8 1   
     9    7    9 2   
    10    8   10 1   
@<TRIPOS>SUBSTRUCTURE
     1 GBD         1 TEMP              0 ****  ****    0 ROOT
