@<TRIPOS>MOLECULE
molecule
   56    57     1     0     0
SMALL
bcc


@<TRIPOS>ATOM
      1 C1           0.0000     0.0000     0.0000 c3         1 GBE       0.339900
      2 O1          -0.4760     0.0570    -1.3460 os         1 GBE      -0.378600
      3 C2           1.5320     0.0000     0.0000 c3         1 GBE       0.123100
      4 O2           2.0090    -1.1690    -0.6710 oh         1 GBE      -0.582800
      5 C3           2.0340     0.0000     1.4470 c3         1 GBE       0.110100
      6 O3           3.4610     0.0730     1.4580 oh         1 GBE      -0.606800
      7 C4           1.4530     1.2140     2.1780 c3         1 GBE       0.097100
      8 O4           1.8560     1.1850     3.5480 oh         1 GBE      -0.605800
      9 C5          -0.0750     1.1680     2.0930 c3         1 GBE       0.157100
     10 O5          -0.4740     1.1380     0.7220 os         1 GBE      -0.435600
     11 C6          -0.6610     2.4090     2.7690 c3         1 GBE       0.150400
     12 O6          -2.0860     2.3100     2.7940 oh         1 GBE      -0.597800
     13 OAA         -1.9930    -9.6390    -6.8580 o          1 GBE      -0.710200
     14 OAB         -3.9260    -8.3640    -6.6700 o          1 GBE      -0.710200
     15 OAG         -2.5100    -8.9030    -4.7150 o          1 GBE      -0.710200
     16 CAH         -2.2030    -5.8330    -5.7230 c3         1 GBE      -0.055400
     17 CAJ         -1.8950    -0.0520    -1.4650 c3         1 GBE       0.137400
     18 CAL         -2.2910     0.0200    -2.9410 c3         1 GBE       0.163800
     19 CAM         -1.2590    -2.1940    -5.8080 c3         1 GBE       0.163800
     20 CAN         -1.7420    -3.5850    -3.8860 c3         1 GBE       0.163800
     21 CAO         -1.9030    -0.9970    -5.1040 c3         1 GBE       0.161300
     22 CAP         -2.3850    -2.3880    -3.1830 c3         1 GBE       0.161300
     23 CAQ         -1.6400    -7.0500    -6.4610 c3         1 GBE      -0.259600
     24 NAY         -1.8940    -3.4340    -5.3400 n3         1 GBE      -0.735600
     25 NAZ         -1.7510    -1.1480    -3.6500 n3         1 GBE      -0.722600
     26 SBA         -2.6450    -8.5100    -6.0740 s6         1 GBE       1.260800
     27 H1          -0.3590    -0.9040     0.4770 h2         1 GBE       0.044700
     28 H2           1.8920     0.8870    -0.5070 h1         1 GBE       0.062700
     29 HO2          2.7120    -0.9320    -1.2530 ho         1 GBE       0.415000
     30 H3           1.7090    -0.9080     1.9420 h1         1 GBE       0.062700
     31 HO3          3.8080    -0.6280     1.9840 ho         1 GBE       0.414000
     32 H4           1.8120     2.1220     1.7090 h1         1 GBE       0.055700
     33 HO4          2.5340     1.8250     3.6900 ho         1 GBE       0.410000
     34 H5          -0.4350     0.2760     2.5910 h1         1 GBE       0.062700
     35 H6          -0.3710     3.2930     2.2140 h1         1 GBE       0.033700
     36 H6A         -0.2860     2.4800     3.7830 h1         1 GBE       0.033700
     37 HO6         -2.4380     2.9760     3.3610 ho         1 GBE       0.399000
     38 HAH         -2.1790    -6.0160    -4.6550 hc         1 GBE       0.049200
     39 HAHA        -3.2250    -5.6610    -6.0370 hc         1 GBE       0.049200
     40 HAJ         -2.2210    -0.9980    -1.0500 h1         1 GBE       0.036200
     41 HAJA        -2.3660     0.7610    -0.9250 h1         1 GBE       0.036200
     42 HAK         -0.3320    -4.7740    -5.7350 h1         1 GBE       0.029700
     43 HAKA        -1.3790    -4.4190    -7.1170 h1         1 GBE       0.029700
     44 HAL         -3.3710     0.0270    -3.0260 h1         1 GBE       0.040200
     45 HALA        -1.8890     0.9260    -3.3790 h1         1 GBE       0.040200
     46 HAM         -1.3990    -2.1000    -6.8790 h1         1 GBE       0.042950
     47 HAMA        -0.2010    -2.2210    -5.5770 h1         1 GBE       0.042950
     48 HAN         -2.2310    -4.4960    -3.5650 h1         1 GBE       0.042950
     49 HANA        -0.6890    -3.6260    -3.6360 h1         1 GBE       0.042950
     50 HAO         -1.4150    -0.0850    -5.4250 h1         1 GBE       0.034200
     51 HAOA        -2.9570    -0.9570    -5.3540 h1         1 GBE       0.034200
     52 HAP         -3.4430    -2.3600    -3.4140 h1         1 GBE       0.034200
     53 HAPA        -2.2460    -2.4820    -2.1120 h1         1 GBE       0.034200
     54 HAQ         -1.6650    -6.8670    -7.5290 h1         1 GBE       0.071200
     55 HAQA        -0.6180    -7.2210    -6.1470 h1         1 GBE       0.071200
     56 CAK         -1.3540    -4.6020    -6.0490 c3         1 GBE       0.165800
@<TRIPOS>BOND
     1     1     2 1
     2     1     3 1
     3     1    10 1
     4     2    17 1
     5     3     4 1
     6     3     5 1
     7     5     6 1
     8     5     7 1
     9     7     8 1
    10     7     9 1
    11     9    10 1
    12     9    11 1
    13    11    12 1
    14    13    26 1
    15    14    26 1
    16    15    26 1
    17    16    56 1
    18    16    23 1
    19    17    18 1
    20    56    24 1
    21    18    25 1
    22    19    21 1
    23    19    24 1
    24    20    22 1
    25    20    24 1
    26    21    25 1
    27    22    25 1
    28    23    26 1
    29     1    27 1
    30     3    28 1
    31     4    29 1
    32     5    30 1
    33     6    31 1
    34     7    32 1
    35     8    33 1
    36     9    34 1
    37    11    35 1
    38    11    36 1
    39    12    37 1
    40    16    38 1
    41    16    39 1
    42    17    40 1
    43    17    41 1
    44    56    42 1
    45    56    43 1
    46    18    44 1
    47    18    45 1
    48    19    46 1
    49    19    47 1
    50    20    48 1
    51    20    49 1
    52    21    50 1
    53    21    51 1
    54    22    52 1
    55    22    53 1
    56    23    54 1
    57    23    55 1
@<TRIPOS>SUBSTRUCTURE
     1 GBE         1 TEMP              0 ****  ****    0 ROOT
