@<TRIPOS>MOLECULE
GBG
   30    29     1     0     0
SMALL
bcc


@<TRIPOS>ATOM
      1 C4           0.0000     0.0000     0.0000 c3         1 GBG      -0.041400
      2 C3           1.5300     0.0000     0.0000 c3         1 GBG      -0.027400
      3 C2           2.0390     0.0000     1.4430 c3         1 GBG      -0.187500
      4 C1           3.5410    -0.1250     1.4450 c          1 GBG       0.949600
      5 O1           4.1150    -1.3270     1.2780 o          1 GBG      -0.811300
      6 N1           1.6510     1.2550     2.0990 nz         1 GBG      -0.050600
      7 C5          -0.5100     0.0010    -1.4420 c3         1 GBG      -0.029400
      8 C6          -2.0400     0.0010    -1.4440 c3         1 GBG       0.165800
      9 N2          -2.5280     0.0010    -2.8250 nu         1 GBG      -0.536200
     10 C7          -3.8740     0.0020    -3.0760 c2         1 GBG       0.439200
     11 C8          -4.3760     0.0020    -4.4960 c3         1 GBG       0.038700
     12 N3          -4.7150     0.0030    -2.0930 n2         1 GBG      -0.748100
     13 H1          -0.3610     0.8840     0.5110 hc         1 GBG       0.006700
     14 H2          -0.3610    -0.8850     0.5100 hc         1 GBG       0.006700
     15 H3           1.8910    -0.8850    -0.5100 hc         1 GBG       0.055700
     16 H4           1.8910     0.8850    -0.5110 hc         1 GBG       0.055700
     17 H5           1.6060    -0.8360     1.9790 hx         1 GBG       0.087700
     18 H7           1.0080     1.8160     1.5780 hn         1 GBG       0.250133
     19 H8           1.2280     0.5200     2.6310 hn         1 GBG       0.250133
     20 H10         -0.1480    -0.8840    -1.9530 hc         1 GBG       0.028700
     21 H11         -0.1480     0.8850    -1.9530 hc         1 GBG       0.028700
     22 H12         -2.4010     0.8850    -0.9330 h1         1 GBG       0.014700
     23 H13         -2.4010    -0.8840    -0.9340 h1         1 GBG       0.014700
     24 H14         -1.8770     0.0010    -3.5850 hn         1 GBG       0.296800
     25 H15         -4.0150    -0.8820    -5.0070 h1         1 GBG       0.027200
     26 H16         -4.0150     0.8870    -5.0070 h1         1 GBG       0.027200
     27 H18         -4.3820     0.0030    -1.1490 hn         1 GBG       0.323400
     28 Cl1         -6.1790     0.0020    -4.4970 cl         1 GBG      -0.077400
     29 O2           4.2290     0.8570     1.5980 o          1 GBG      -0.811300
     30 H131         2.3990     1.7300     2.5660 hn         1 GBG       0.250133
@<TRIPOS>BOND
     1     1     2 1   
     2     1     7 1   
     3     1    13 1   
     4     1    14 1   
     5     2     3 1   
     6     2    15 1   
     7     2    16 1   
     8     3     4 1   
     9     3     6 1   
    10     3    17 1   
    11     4     5 1   
    12     4    29 1   
    13     6    18 1   
    14     6    19 1   
    15     6    30 1   
    16     7     8 1   
    17     7    20 1   
    18     7    21 1   
    19     8     9 1   
    20     8    22 1   
    21     8    23 1   
    22     9    10 1   
    23     9    24 1   
    24    10    11 1   
    25    10    12 2   
    26    11    25 1   
    27    11    26 1   
    28    11    28 1   
    29    12    27 1   
@<TRIPOS>SUBSTRUCTURE
     1 GBG         1 TEMP              0 ****  ****    0 ROOT
